/*--------------------------------*- C++ -*----------------------------------*\
| =========                 |                                                 |
| \\      /  F ield         | OpenFOAM: The Open Source CFD Toolbox           |
|  \\    /   O peration     | Version:  2.4.x                                 |
|   \\  /    A nd           | Web:      www.OpenFOAM.org                      |
|    \\/     M anipulation  |                                                 |
\*---------------------------------------------------------------------------*/
FoamFile
{
    version     2.0;
    format      ascii;
    class       featureEdgeMesh;
    note        "written 2018-11-13T13:09:56";
    location    "";
    object      kvlcc2_line1a-mirrored.eMesh;
}
// * * * * * * * * * * * * * * * * * * * * * * * * * * * * * * * * * * * * * //


// points:

387
(
(-0.035945 -5.07861e-18 -0.04147)
(-0.03624 -5.09882e-18 -0.041635)
(-0.039936 -4e-06 -0.043757)
(-0.03574 -5.09882e-18 -0.041635)
(-0.035445 -5.07861e-18 -0.04147)
(-0.039436 -4e-06 -0.043757)
(-0.043588 -7e-06 -0.045988)
(-0.047136 -8e-06 -0.048343)
(-0.043088 -7e-06 -0.045988)
(-0.046636 -8e-06 -0.048343)
(-0.05058 -9e-06 -0.050873)
(-0.053861 -8e-06 -0.053595)
(-0.05008 -9e-06 -0.050873)
(-0.053361 -8e-06 -0.053595)
(-0.05695 -6e-06 -0.056547)
(-0.05645 -6e-06 -0.056547)
(-0.059788 -4e-06 -0.059722)
(-0.062353 -2e-06 -0.063155)
(-0.059288 -4e-06 -0.059722)
(-0.061853 -2e-06 -0.063155)
(-0.063506 -2e-06 -0.064918)
(-0.064584 -1e-06 -0.066745)
(-0.063006 -2e-06 -0.064918)
(-0.064084 -1e-06 -0.066745)
(-0.065598 -1e-06 -0.068669)
(-0.06652 -1e-06 -0.070638)
(-0.065098 -1e-06 -0.068669)
(-0.06602 -1e-06 -0.070638)
(-0.068002 -1e-06 -0.074509)
(-0.067502 -1e-06 -0.074509)
(-0.069035 -1e-06 -0.078203)
(-0.069689 -1.00046e-17 -0.081694)
(-0.068535 -1e-06 -0.078203)
(-0.069189 -1.00046e-17 -0.081694)
(-0.07005 -1.04259e-17 -0.085134)
(-0.070194 -1.08583e-17 -0.088665)
(-0.06955 -1.04259e-17 -0.085134)
(-0.069694 -1.08583e-17 -0.088665)
(-0.070127 1e-06 -0.092211)
(-0.069846 1e-06 -0.095674)
(-0.069627 1e-06 -0.092211)
(-0.069346 1e-06 -0.095674)
(-0.069377 2e-06 -0.099095)
(-0.068877 2e-06 -0.099095)
(-0.068742 2e-06 -0.102514)
(-0.067931 2e-06 -0.105876)
(-0.068242 2e-06 -0.102514)
(-0.067431 2e-06 -0.105876)
(-0.066959 3e-06 -0.109209)
(-0.065851 3e-06 -0.112468)
(-0.066459 3e-06 -0.109209)
(-0.065351 3e-06 -0.112468)
(-0.064602 3e-06 -0.115676)
(-0.063222 2e-06 -0.118826)
(-0.064102 3e-06 -0.115676)
(-0.062722 2e-06 -0.118826)
(-0.061725 2e-06 -0.121906)
(-0.061225 2e-06 -0.121906)
(-0.060102 2e-06 -0.124927)
(-0.058347 2e-06 -0.127899)
(-0.059602 2e-06 -0.124927)
(-0.057847 2e-06 -0.127899)
(-0.056474 2e-06 -0.130806)
(-0.054493 2e-06 -0.133634)
(-0.055974 2e-06 -0.130806)
(-0.053993 2e-06 -0.133634)
(-0.052381 1e-06 -0.136401)
(-0.050157 1e-06 -0.139086)
(-0.051881 1e-06 -0.136401)
(-0.049657 1e-06 -0.139086)
(-0.047879 1e-06 -0.141633)
(-0.047379 1e-06 -0.141633)
(-0.045409 1e-06 -0.144168)
(-0.043746 1e-06 -0.145768)
(-0.044909 1e-06 -0.144168)
(-0.043246 1e-06 -0.145768)
(-0.042465 -1.79952e-17 -0.146942)
(-0.041076 -1.81449e-17 -0.148164)
(-0.041965 -1.79952e-17 -0.146942)
(-0.040576 -1.81449e-17 -0.148164)
(-0.039699 -1.8287e-17 -0.149325)
(-0.038282 -1.84275e-17 -0.150472)
(-0.039199 -1.8287e-17 -0.149325)
(-0.037782 -1.84275e-17 -0.150472)
(-0.036846 -1.85642e-17 -0.151588)
(-0.036346 -1.85642e-17 -0.151588)
(-0.035395 -1.86968e-17 -0.152671)
(-0.033918 -1.88266e-17 -0.153731)
(-0.034895 -1.86968e-17 -0.152671)
(-0.033418 -1.88266e-17 -0.153731)
(-0.032421 -1.89531e-17 -0.154764)
(-0.030908 -1.9076e-17 -0.155767)
(-0.031921 -1.89531e-17 -0.154764)
(-0.030408 -1.9076e-17 -0.155767)
(-0.029376 -1.91957e-17 -0.156745)
(-0.027829 -1.93121e-17 -0.157695)
(-0.028876 -1.91957e-17 -0.156745)
(-0.027329 -1.93121e-17 -0.157695)
(-0.026264 -1.94252e-17 -0.158619)
(-0.025765 -1.94252e-17 -0.158619)
(-0.024685 -1.95352e-17 -0.159517)
(-0.023092 -1.9642e-17 -0.160389)
(-0.024185 -1.95352e-17 -0.159517)
(-0.022592 -1.9642e-17 -0.160389)
(-0.022291 -1.96943e-17 -0.160816)
(-0.021791 -1.96943e-17 -0.160816)
(-0.021486 -1.97458e-17 -0.161237)
(-0.020678 -1.97965e-17 -0.161651)
(-0.020986 -1.97458e-17 -0.161237)
(-0.020178 -1.97965e-17 -0.161651)
(-0.019867 -1.98465e-17 -0.162059)
(-0.019717 -1.98465e-17 -0.162059)
(-0.019517 -1.98465e-17 -0.162059)
(-0.019367 -1.98465e-17 -0.162059)
(-0.000497 -2.20436e-21 -1.8e-05)
(-0.000516 -1.40467e-19 -0.001147)
(-0.000347 -2.20436e-21 -1.8e-05)
(-0.000147 -2.20436e-21 -1.8e-05)
(-0.000583 -3.24654e-19 -0.002651)
(3e-06 -2.20436e-21 -1.8e-05)
(-1.6e-05 -1.40467e-19 -0.001147)
(-8.3e-05 -3.24654e-19 -0.002651)
(-0.000656 -4.48833e-19 -0.003665)
(-0.000156 -4.48833e-19 -0.003665)
(-0.000666 -4.62427e-19 -0.003776)
(-0.00085 -6.71964e-19 -0.005487)
(-0.000166 -4.62427e-19 -0.003776)
(-0.00035 -6.71964e-19 -0.005487)
(-0.001129 -8.9387e-19 -0.007299)
(-0.000629 -8.9387e-19 -0.007299)
(-0.001166 -9.18608e-19 -0.007501)
(-0.001499 -1.11431e-18 -0.009099)
(-0.000666 -9.18608e-19 -0.007501)
(-0.000999 -1.11431e-18 -0.009099)
(-0.001964 -1.33229e-18 -0.010879)
(-0.001464 -1.33229e-18 -0.010879)
(-0.002155 -1.41006e-18 -0.011514)
(-0.002525 -1.54636e-18 -0.012627)
(-0.001655 -1.41006e-18 -0.011514)
(-0.002025 -1.54636e-18 -0.012627)
(-0.003185 -1.75504e-18 -0.014331)
(-0.002685 -1.75504e-18 -0.014331)
(-0.003643 -1.88069e-18 -0.015357)
(-0.003949 -1.9576e-18 -0.015985)
(-0.003143 -1.88069e-18 -0.015357)
(-0.003449 -1.9576e-18 -0.015985)
(-0.004486 -2.0819e-18 -0.017)
(-0.003986 -2.0819e-18 -0.017)
(-0.004828 -2.15489e-18 -0.017596)
(-0.005445 -2.27686e-18 -0.018592)
(-0.004328 -2.15489e-18 -0.017596)
(-0.004945 -2.27686e-18 -0.018592)
(-0.005824 -2.34716e-18 -0.019166)
(-0.005324 -2.34716e-18 -0.019166)
(-0.006494 -2.46448e-18 -0.020124)
(-0.006886 -2.52988e-18 -0.020658)
(-0.005994 -2.46448e-18 -0.020124)
(-0.006386 -2.52988e-18 -0.020658)
(-0.00704 -2.55486e-18 -0.020862)
(-0.00654 -2.55486e-18 -0.020862)
(-0.007599 -2.64303e-18 -0.021582)
(-0.007986 -2.70133e-18 -0.022058)
(-0.007099 -2.64303e-18 -0.021582)
(-0.007486 -2.70133e-18 -0.022058)
(-0.008644 -2.79575e-18 -0.022829)
(-0.008144 -2.79575e-18 -0.022829)
(-0.009225 -2.87486e-18 -0.023475)
(-0.009791 -2.94883e-18 -0.024079)
(-0.008725 -2.87486e-18 -0.023475)
(-0.009291 -2.94883e-18 -0.024079)
(-0.010702 -3.06247e-18 -0.025007)
(-0.010202 -3.06247e-18 -0.025007)
(-0.012346 -3.25291e-18 -0.026562)
(-0.012376 -3.25621e-18 -0.026589)
(-0.011846 -3.25291e-18 -0.026562)
(-0.011876 -3.25621e-18 -0.026589)
(-0.014175 -3.44505e-18 -0.028131)
(-0.013675 -3.44505e-18 -0.028131)
(-0.014845 -3.51106e-18 -0.02867)
(-0.016048 -3.62483e-18 -0.029599)
(-0.014345 -3.51106e-18 -0.02867)
(-0.015548 -3.62483e-18 -0.029599)
(-0.016142 -3.6334e-18 -0.029669)
(-0.015642 -3.6334e-18 -0.029669)
(-0.01796 -3.79408e-18 -0.030981)
(-0.019675 -3.93614e-18 -0.032141)
(-0.01746 -3.79408e-18 -0.030981)
(-0.019175 -3.93614e-18 -0.032141)
(-0.01991 -3.955e-18 -0.032295)
(-0.01941 -3.955e-18 -0.032295)
(-0.021939 -4.11261e-18 -0.033582)
(-0.023929 -4.25957e-18 -0.034782)
(-0.021439 -4.11261e-18 -0.033582)
(-0.023429 -4.25957e-18 -0.034782)
(-0.02424 -4.28198e-18 -0.034965)
(-0.02374 -4.28198e-18 -0.034965)
(-0.026566 -4.44571e-18 -0.036302)
(-0.028025 -1e-06 -0.037118)
(-0.026066 -4.44571e-18 -0.036302)
(-0.027525 -1e-06 -0.037118)
(-0.031258 -4.76302e-18 -0.038893)
(-0.030758 -4.76302e-18 -0.038893)
(-0.032163 -4.82352e-18 -0.039387)
(-0.032437 -4.84189e-18 -0.039537)
(-0.031663 -4.82352e-18 -0.039387)
(-0.031937 -4.84189e-18 -0.039537)
(-0.033614 -4.92088e-18 -0.040182)
(-0.033114 -4.92088e-18 -0.040182)
(-0.034318 -4.96827e-18 -0.040569)
(-0.035252 -5.03134e-18 -0.041084)
(-0.033818 -4.96827e-18 -0.040569)
(-0.034752 -5.03134e-18 -0.041084)
(2.72341 1e-06 -0.041373)
(2.7251 1e-06 -0.040862)
(2.72311 -1e-06 -0.041373)
(2.72271 -4e-06 -0.041373)
(2.72679 1e-06 -0.040353)
(2.72241 -6e-06 -0.041373)
(2.7241 -6e-06 -0.040862)
(2.72579 -6e-06 -0.040353)
(2.7285 1e-06 -0.039842)
(2.7275 -6e-06 -0.039842)
(2.73023 1e-06 -0.039326)
(2.73197 1e-06 -0.038806)
(2.72923 -6e-06 -0.039326)
(2.73097 -6e-06 -0.038806)
(2.7337 1e-06 -0.038287)
(2.73541 1e-06 -0.037772)
(2.7327 -7e-06 -0.038287)
(2.73442 -7e-06 -0.037772)
(2.73711 1e-06 -0.037261)
(2.73611 -7e-06 -0.037261)
(2.73858 1e-06 -0.036814)
(2.74006 1e-06 -0.036365)
(2.73759 -7e-06 -0.036814)
(2.73906 -7e-06 -0.036365)
(2.74302 1e-06 -0.035462)
(2.74598 1e-06 -0.034559)
(2.74202 -7e-06 -0.035462)
(2.74498 -7e-06 -0.034559)
(2.74893 1e-06 -0.033661)
(2.74793 -7e-06 -0.033661)
(2.75185 1e-06 -0.032772)
(2.75476 1e-06 -0.031889)
(2.75085 -6e-06 -0.032772)
(2.75376 -6e-06 -0.031889)
(2.75767 1e-06 -0.031011)
(2.75913 1e-06 -0.030574)
(2.75668 -6e-06 -0.031011)
(2.75813 -6e-06 -0.030574)
(2.76059 1e-06 -0.03014)
(2.75958 -6e-06 -0.03014)
(2.76204 2e-06 -0.029706)
(2.76349 2e-06 -0.029275)
(2.76104 -6e-06 -0.029706)
(2.76249 -6e-06 -0.029275)
(2.76495 2e-06 -0.028846)
(2.7664 2e-06 -0.028418)
(2.76395 -5e-06 -0.028846)
(2.7654 -5e-06 -0.028418)
(2.76785 2e-06 -0.027992)
(2.76685 -5e-06 -0.027992)
(2.7693 2e-06 -0.027569)
(2.77075 3e-06 -0.027148)
(2.7683 -5e-06 -0.027569)
(2.76975 -5e-06 -0.027148)
(2.77221 3e-06 -0.026729)
(2.7743 3e-06 -0.026128)
(2.7712 -5e-06 -0.026729)
(2.7733 -4e-06 -0.026128)
(2.77641 4e-06 -0.025529)
(2.77541 -4e-06 -0.025529)
(2.77855 4e-06 -0.024928)
(2.78071 4e-06 -0.024325)
(2.77755 -3e-06 -0.024928)
(2.77971 -3e-06 -0.024325)
(2.78291 5e-06 -0.02372)
(2.78512 5e-06 -0.023113)
(2.7819 -3e-06 -0.02372)
(2.78412 -2e-06 -0.023113)
(2.78735 6e-06 -0.022505)
(2.78636 -2e-06 -0.022505)
(2.7896 6e-06 -0.021899)
(2.79184 7e-06 -0.021296)
(2.7886 -1e-06 -0.021899)
(2.79084 -1e-06 -0.021296)
(2.79408 7e-06 -0.020698)
(2.7963 8e-06 -0.020106)
(2.79308 -2.53477e-18 -0.020698)
(2.7953 1e-06 -0.020106)
(2.7985 8e-06 -0.019521)
(2.7975 1e-06 -0.019521)
(2.80282 1e-05 -0.018375)
(2.80705 1.1e-05 -0.017249)
(2.80675 9e-06 -0.017249)
(2.80635 6e-06 -0.017249)
(2.80182 2e-06 -0.018375)
(2.80605 4e-06 -0.017249)
(2.62119 4e-06 -0.180336)
(2.62298 4e-06 -0.180339)
(2.62104 4e-06 -0.180036)
(2.62084 4e-06 -0.179636)
(2.62525 3e-06 -0.180322)
(2.62069 4e-06 -0.179336)
(2.62248 4e-06 -0.179339)
(2.62475 3e-06 -0.179322)
(2.62537 3e-06 -0.180321)
(2.62487 3e-06 -0.179321)
(2.62717 3e-06 -0.180285)
(2.62727 3e-06 -0.180283)
(2.62667 3e-06 -0.179285)
(2.62678 3e-06 -0.179283)
(2.6293 3e-06 -0.180216)
(2.6288 3e-06 -0.179216)
(2.63133 2e-06 -0.180117)
(2.63335 2e-06 -0.179983)
(2.63083 2e-06 -0.179117)
(2.63285 2e-06 -0.178983)
(2.63537 2e-06 -0.179808)
(2.63487 2e-06 -0.178808)
(2.63739 2e-06 -0.17959)
(2.6394 1e-06 -0.179322)
(2.63689 2e-06 -0.17859)
(2.6389 1e-06 -0.178322)
(2.64012 1e-06 -0.179212)
(2.6414 1e-06 -0.178997)
(2.63962 1e-06 -0.178212)
(2.6409 1e-06 -0.177997)
(2.64339 1e-06 -0.178604)
(2.64289 1e-06 -0.177604)
(2.64536 1e-06 -0.178134)
(2.64731 -2.1747e-17 -0.177578)
(2.64487 1e-06 -0.177134)
(2.64681 -2.16246e-17 -0.176578)
(2.64922 -2.16673e-17 -0.176927)
(2.6511 -2.15746e-17 -0.17617)
(2.64873 -2.15448e-17 -0.175927)
(2.6506 -2.14521e-17 -0.17517)
(2.65203 -2.1523e-17 -0.175749)
(2.65153 -2.14006e-17 -0.174749)
(2.65259 -2.14897e-17 -0.175477)
(2.65294 -2.14678e-17 -0.175298)
(2.65209 -2.13673e-17 -0.174477)
(2.65244 -2.13453e-17 -0.174298)
(2.65384 -2.14089e-17 -0.174817)
(2.65473 -2.13466e-17 -0.174308)
(2.65334 -2.12864e-17 -0.173817)
(2.65423 -2.12241e-17 -0.173308)
(2.65647 -2.12128e-17 -0.173216)
(2.65597 -2.10904e-17 -0.172216)
(2.65814 -1e-06 -0.172045)
(2.65815 -1e-06 -0.172034)
(2.65764 -1e-06 -0.171045)
(2.65765 -1e-06 -0.171034)
(2.65974 -1e-06 -0.170818)
(2.66126 -1e-06 -0.169549)
(2.65924 -1e-06 -0.169818)
(2.66076 -1e-06 -0.168549)
(2.66273 -1e-06 -0.16822)
(2.66223 -1e-06 -0.16722)
(2.66306 -1e-06 -0.167905)
(2.66416 -1e-06 -0.166804)
(2.66256 -1e-06 -0.166905)
(2.66366 -1e-06 -0.165804)
(2.66557 -1e-06 -0.165275)
(2.66698 -1e-06 -0.163615)
(2.66507 -1e-06 -0.164275)
(2.66648 -1e-06 -0.162615)
(2.66778 -1e-06 -0.162628)
(2.66728 -1e-06 -0.161628)
(2.6684 -1e-06 -0.161841)
(2.66983 -1e-06 -0.159979)
(2.6679 -1e-06 -0.160841)
(2.66933 -1e-06 -0.158979)
(2.67059 -1e-06 -0.158968)
(2.67127 -1e-06 -0.158054)
(2.67009 -1e-06 -0.157968)
(2.67077 -1e-06 -0.157054)
(2.67419 -1e-06 -0.154119)
(2.67369 -1e-06 -0.153119)
(2.67432 -1e-06 -0.153952)
(2.6772 -1e-06 -0.150244)
(2.67705 -1e-06 -0.149944)
(2.67685 -1e-06 -0.149544)
(2.67382 -1e-06 -0.152952)
(2.6767 -1e-06 -0.149244)
(2.6767 -1e-06 -0.149255)
)


// edges:

387
(
(0 1)
(1 2)
(3 4)
(5 3)
(2 6)
(6 7)
(8 5)
(9 8)
(7 10)
(10 11)
(12 9)
(13 12)
(11 14)
(15 13)
(14 16)
(16 17)
(18 15)
(19 18)
(17 20)
(20 21)
(22 19)
(23 22)
(21 24)
(24 25)
(26 23)
(27 26)
(25 28)
(29 27)
(28 30)
(30 31)
(32 29)
(33 32)
(31 34)
(34 35)
(36 33)
(37 36)
(35 38)
(38 39)
(40 37)
(41 40)
(39 42)
(43 41)
(42 44)
(44 45)
(46 43)
(47 46)
(45 48)
(48 49)
(50 47)
(51 50)
(49 52)
(52 53)
(54 51)
(55 54)
(53 56)
(57 55)
(56 58)
(58 59)
(60 57)
(61 60)
(59 62)
(62 63)
(64 61)
(65 64)
(63 66)
(66 67)
(68 65)
(69 68)
(67 70)
(71 69)
(70 72)
(72 73)
(74 71)
(75 74)
(73 76)
(76 77)
(78 75)
(79 78)
(77 80)
(80 81)
(82 79)
(83 82)
(81 84)
(85 83)
(84 86)
(86 87)
(88 85)
(89 88)
(87 90)
(90 91)
(92 89)
(93 92)
(91 94)
(94 95)
(96 93)
(97 96)
(95 98)
(99 97)
(98 100)
(100 101)
(102 99)
(103 102)
(101 104)
(105 103)
(104 106)
(106 107)
(108 105)
(109 108)
(110 111)
(107 110)
(111 112)
(113 109)
(112 113)
(114 115)
(116 114)
(117 116)
(115 118)
(119 117)
(120 119)
(121 120)
(118 122)
(123 121)
(122 124)
(124 125)
(126 123)
(127 126)
(125 128)
(129 127)
(128 130)
(130 131)
(132 129)
(133 132)
(131 134)
(135 133)
(134 136)
(136 137)
(138 135)
(139 138)
(137 140)
(141 139)
(140 142)
(142 143)
(144 141)
(145 144)
(143 146)
(147 145)
(146 148)
(148 149)
(150 147)
(151 150)
(149 152)
(153 151)
(152 154)
(154 155)
(156 153)
(157 156)
(155 158)
(159 157)
(158 160)
(160 161)
(162 159)
(163 162)
(161 164)
(165 163)
(164 166)
(166 167)
(168 165)
(169 168)
(167 170)
(171 169)
(170 172)
(172 173)
(174 171)
(175 174)
(173 176)
(177 175)
(176 178)
(178 179)
(180 177)
(181 180)
(179 182)
(183 181)
(182 184)
(184 185)
(186 183)
(187 186)
(185 188)
(189 187)
(188 190)
(190 191)
(192 189)
(193 192)
(191 194)
(195 193)
(194 196)
(196 197)
(198 195)
(199 198)
(197 200)
(201 199)
(200 202)
(202 203)
(204 201)
(205 204)
(203 206)
(207 205)
(206 208)
(208 209)
(210 207)
(211 210)
(209 0)
(4 211)
(212 213)
(214 212)
(215 214)
(213 216)
(217 215)
(218 217)
(219 218)
(216 220)
(221 219)
(220 222)
(222 223)
(224 221)
(225 224)
(223 226)
(226 227)
(228 225)
(229 228)
(227 230)
(231 229)
(230 232)
(232 233)
(234 231)
(235 234)
(233 236)
(236 237)
(238 235)
(239 238)
(237 240)
(241 239)
(240 242)
(242 243)
(244 241)
(245 244)
(243 246)
(246 247)
(248 245)
(249 248)
(247 250)
(251 249)
(250 252)
(252 253)
(254 251)
(255 254)
(253 256)
(256 257)
(258 255)
(259 258)
(257 260)
(261 259)
(260 262)
(262 263)
(264 261)
(265 264)
(263 266)
(266 267)
(268 265)
(269 268)
(267 270)
(271 269)
(270 272)
(272 273)
(274 271)
(275 274)
(273 276)
(276 277)
(278 275)
(279 278)
(277 280)
(281 279)
(280 282)
(282 283)
(284 281)
(285 284)
(283 286)
(286 287)
(288 285)
(289 288)
(287 290)
(291 289)
(290 292)
(293 294)
(292 293)
(294 295)
(296 291)
(297 296)
(295 297)
(298 299)
(300 298)
(301 300)
(299 302)
(303 301)
(304 303)
(305 304)
(302 306)
(307 305)
(306 308)
(308 309)
(310 307)
(311 310)
(309 312)
(313 311)
(312 314)
(314 315)
(316 313)
(317 316)
(315 318)
(319 317)
(318 320)
(320 321)
(322 319)
(323 322)
(321 324)
(324 325)
(326 323)
(327 326)
(325 328)
(329 327)
(328 330)
(330 331)
(332 329)
(333 332)
(331 334)
(334 335)
(336 333)
(337 336)
(335 338)
(339 337)
(338 340)
(340 341)
(342 339)
(343 342)
(341 344)
(344 345)
(346 343)
(347 346)
(345 348)
(349 347)
(348 350)
(350 351)
(352 349)
(353 352)
(351 354)
(354 355)
(356 353)
(357 356)
(355 358)
(359 357)
(358 360)
(360 361)
(362 359)
(363 362)
(361 364)
(364 365)
(366 363)
(367 366)
(365 368)
(369 367)
(368 370)
(370 371)
(372 369)
(373 372)
(371 374)
(374 375)
(376 373)
(377 376)
(375 378)
(379 377)
(378 380)
(381 382)
(380 381)
(382 383)
(384 379)
(385 384)
(386 385)
(383 386)
)

// * * * * * * * * * * * * * * * * * * * * * * * * * * * * * * * * * * * * * //
