/*--------------------------------*- C++ -*----------------------------------*\
|       o          |                                                          |
|    o     o       | HELYX-OS                                                  |
|   o   O   o      | Version: v2.4.0                                           |
|    o     o       | Web:     http://www.engys.com                            |
|       o          |                                                          |
\*---------------------------------------------------------------------------*/
FoamFile
{
    version 2.0;
    format ascii;
    class classe;
    location parent;
    object name;
}


    2584
    (
      ( 2.8060359954833984 -0.05071600154042244 0.0)
      ( 2.8051130771636963 -0.05131100118160248 0.0)
      ( 2.8060359954833984 -0.050057001411914825 0.0)
      ( 2.8060359954833984 -0.04939800128340721 0.0)
      ( 2.8041889667510986 -0.05190499871969223 0.0)
      ( 2.8060359954833984 -0.04906899854540825 0.0)
      ( 2.8032639026641846 -0.05249699950218201 0.0)
      ( 2.802337884902954 -0.05308699980378151 0.0)
      ( 2.8060359954833984 -0.0487390011548996 0.0)
      ( 2.8060359954833984 -0.048409998416900635 0.0)
      ( 2.8060359954833984 -0.04808099940419197 0.0)
      ( 2.8014109134674072 -0.05367499962449074 0.0)
      ( 2.800482988357544 -0.05426200106739998 0.0)
      ( 2.7995541095733643 -0.05484599992632866 0.0)
      ( 2.7986230850219727 -0.05542900040745735 0.0)
      ( 2.8060359954833984 -0.04775099828839302 0.0)
      ( 2.806035041809082 -0.04742199927568436 0.0)
      ( 2.806035041809082 -0.047091998159885406 0.0)
      ( 2.806035041809082 -0.04676299914717674 0.0)
      ( 2.806035041809082 -0.04643400013446808 0.0)
      ( 2.806035041809082 -0.04610399901866913 0.0)
      ( 2.797692060470581 -0.05601099878549576 0.0)
      ( 2.7967588901519775 -0.0565899983048439 0.0)
      ( 2.7958250045776367 -0.05716799944639206 0.0)
      ( 2.794891119003296 -0.05774400010704994 0.0)
      ( 2.793955087661743 -0.05831899866461754 0.0)
      ( 2.7930190563201904 -0.05889200046658516 0.0)
      ( 2.792081117630005 -0.059463001787662506 0.0)
      ( 2.806035041809082 -0.045775000005960464 0.0)
      ( 2.806035041809082 -0.045444998890161514 0.0)
      ( 2.806035041809082 -0.04511599987745285 0.0)
      ( 2.806035041809082 -0.0447859987616539 0.0)
      ( 2.806035041809082 -0.044456999748945236 0.0)
      ( 2.806035041809082 -0.04412800073623657 0.0)
      ( 2.806035041809082 -0.04379799962043762 0.0)
      ( 2.806035041809082 -0.04346900060772896 0.0)
      ( 2.806035041809082 -0.04313899949193001 0.0)
      ( 2.806035041809082 -0.042810000479221344 0.0)
      ( 2.806035041809082 -0.04248100146651268 0.0)
      ( 2.8060340881347656 -0.04215100035071373 0.0)
      ( 2.791141986846924 -0.06003199890255928 0.0)
      ( 2.7902019023895264 -0.060600001364946365 0.0)
      ( 2.789262056350708 -0.06116599962115288 0.0)
      ( 2.7883200645446777 -0.061730001121759415 0.0)
      ( 2.787377119064331 -0.06229199841618538 0.0)
      ( 2.786432981491089 -0.06285300105810165 0.0)
      ( 2.785489082336426 -0.06341300159692764 0.0)
      ( 2.784543037414551 -0.06396999955177307 0.0)
      ( 2.7835960388183594 -0.06452599912881851 0.0)
      ( 2.782649040222168 -0.06508100032806396 0.0)
      ( 2.7816998958587646 -0.06563299894332886 0.0)
      ( 2.7807509899139404 -0.06618399918079376 0.0)
      ( 2.7797999382019043 -0.06673400104045868 0.0)
      ( 2.778848886489868 -0.06728199869394302 0.0)
      ( 2.8060340881347656 -0.041822001338005066 0.0)
      ( 2.8060340881347656 -0.041492000222206116 0.0)
      ( 2.8060340881347656 -0.04116300120949745 0.0)
      ( 2.8060340881347656 -0.04083399847149849 0.0)
      ( 2.8060340881347656 -0.04050400108098984 0.0)
      ( 2.8060340881347656 -0.040174998342990875 0.0)
      ( 2.8060340881347656 -0.039845000952482224 0.0)
      ( 2.8060340881347656 -0.03951599821448326 0.0)
      ( 2.8060340881347656 -0.0391869992017746 0.0)
      ( 2.8060340881347656 -0.038857001811265945 0.0)
      ( 2.8060340881347656 -0.03852799907326698 0.0)
      ( 2.8060340881347656 -0.03819800168275833 0.0)
      ( 2.8060340881347656 -0.03786899894475937 0.0)
      ( 2.8060340881347656 -0.037539999932050705 0.0)
      ( 2.8060340881347656 -0.037209998816251755 0.0)
      ( 2.8060340881347656 -0.03688099980354309 0.0)
      ( 2.8060340881347656 -0.03655099868774414 0.0)
      ( 2.8060340881347656 -0.03622199967503548 0.0)
      ( 2.80603289604187 -0.03589300066232681 0.0)
      ( 2.80603289604187 -0.03556299954652786 0.0)
      ( 2.80603289604187 -0.0352340005338192 0.0)
      ( 2.80603289604187 -0.03490399941802025 0.0)
      ( 2.80603289604187 -0.034575000405311584 0.0)
      ( 2.7778968811035156 -0.06782799959182739 0.0)
      ( 2.7769439220428467 -0.06837199628353119 0.0)
      ( 2.7759900093078613 -0.0689150020480156 0.0)
      ( 2.7750349044799805 -0.06945700198411942 0.0)
      ( 2.7740790843963623 -0.06999699771404266 0.0)
      ( 2.773123025894165 -0.07053499668836594 0.0)
      ( 2.772165060043335 -0.07107199728488922 0.0)
      ( 2.771207094192505 -0.07160700112581253 0.0)
      ( 2.770246982574463 -0.07214000076055527 0.0)
      ( 2.7692880630493164 -0.072673000395298 0.0)
      ( 2.768326997756958 -0.07320299744606018 0.0)
      ( 2.767364978790283 -0.07373300194740295 0.0)
      ( 2.766402006149292 -0.07425999641418457 0.0)
      ( 2.765439033508301 -0.07478699833154678 0.0)
      ( 2.764475107192993 -0.07531200349330902 0.0)
      ( 2.76350998878479 -0.07583499699831009 0.0)
      ( 2.762545108795166 -0.07635799795389175 0.0)
      ( 2.7615790367126465 -0.07687900215387344 0.0)
      ( 2.7606120109558105 -0.07739800214767456 0.0)
      ( 2.759644031524658 -0.07791599631309509 0.0)
      ( 2.758676052093506 -0.07843299955129623 0.0)
      ( 2.757707118988037 -0.07894899696111679 0.0)
      ( 2.756736993789673 -0.07946299761533737 0.0)
      ( 2.755765914916992 -0.07997599989175797 0.0)
      ( 2.7547950744628906 -0.08048799633979797 0.0)
      ( 2.7528510093688965 -0.08150900155305862 0.0)
      ( 2.750904083251953 -0.08252400159835815 0.0)
      ( 2.748955011367798 -0.08353500068187714 0.0)
      ( 2.7470030784606934 -0.08454100042581558 0.0)
      ( 2.80603289604187 -0.03424600139260292 0.0)
      ( 2.80603289604187 -0.03391600027680397 0.0)
      ( 2.80603289604187 -0.033587001264095306 0.0)
      ( 2.80603289604187 -0.033257000148296356 0.0)
      ( 2.80603289604187 -0.03292800113558769 0.0)
      ( 2.80603289604187 -0.03259899839758873 0.0)
      ( 2.80603289604187 -0.03226900100708008 0.0)
      ( 2.80603289604187 -0.031939998269081116 0.0)
      ( 2.80603289604187 -0.031610000878572464 0.0)
      ( 2.80603289604187 -0.0312809981405735 0.0)
      ( 2.80603289604187 -0.030951999127864838 0.0)
      ( 2.80603289604187 -0.030621999874711037 0.0)
      ( 2.80603289604187 -0.030293000862002373 0.0)
      ( 2.80603289604187 -0.029962999746203423 0.0)
      ( 2.80603289604187 -0.02963400073349476 0.0)
      ( 2.80603289604187 -0.029304999858140945 0.0)
      ( 2.80603289604187 -0.028975000604987144 0.0)
      ( 2.80603289604187 -0.02864599972963333 0.0)
      ( 2.80603289604187 -0.02831600047647953 0.0)
      ( 2.80603289604187 -0.027986999601125717 0.0)
      ( 2.80603289604187 -0.027657000347971916 0.0)
      ( 2.8060319423675537 -0.027327999472618103 0.0)
      ( 2.8060319423675537 -0.02699900045990944 0.0)
      ( 2.8060319423675537 -0.02666899934411049 0.0)
      ( 2.8060319423675537 -0.026340000331401825 0.0)
      ( 2.8060319423675537 -0.026009999215602875 0.0)
      ( 2.8060319423675537 -0.02568100020289421 0.0)
      ( 2.8060319423675537 -0.025351999327540398 0.0)
      ( 2.8060319423675537 -0.025022000074386597 0.0)
      ( 2.8060319423675537 -0.024692999199032784 0.0)
      ( 2.8060319423675537 -0.024362999945878983 0.0)
      ( 2.8060319423675537 -0.023705000057816505 0.0)
      ( 2.8060319423675537 -0.02304599992930889 0.0)
      ( 2.8060319423675537 -0.022386999800801277 0.0)
      ( 2.8060319423675537 -0.022058000788092613 0.0)
      ( 2.8060319423675537 -0.021727999672293663 0.0)
      ( 2.8060319423675537 -0.021399000659585 0.0)
      ( 2.8060319423675537 -0.02106899954378605 0.0)
      ( 2.8060319423675537 -0.020410999655723572 0.0)
      ( 2.8060319423675537 -0.019751999527215958 0.0)
      ( 2.8060319423675537 -0.019092999398708344 0.0)
      ( 2.8060319423675537 -0.01843399927020073 0.0)
      ( 2.8060319423675537 -0.017774999141693115 0.0)
      ( 2.8060319423675537 -0.017116999253630638 0.0)
      ( 2.8060319423675537 -0.016457999125123024 0.0)
      ( 2.8060319423675537 -0.01579900085926056 0.0)
      ( 2.745048999786377 -0.08554399758577347 0.0)
      ( 2.7430930137634277 -0.08654200285673141 0.0)
      ( 2.7411348819732666 -0.08753599971532822 0.0)
      ( 2.7391750812530518 -0.08852600306272507 0.0)
      ( 2.737212896347046 -0.08951199799776077 0.0)
      ( 2.7352490425109863 -0.09049499779939651 0.0)
      ( 2.733283042907715 -0.09147399663925171 0.0)
      ( 2.731316089630127 -0.09245000034570694 0.0)
      ( 2.729346990585327 -0.09342300146818161 0.0)
      ( 2.7273759841918945 -0.09439300000667572 0.0)
      ( 2.7254040241241455 -0.09536000341176987 0.0)
      ( 2.72343111038208 -0.09632399678230286 0.0)
      ( 2.721457004547119 -0.09728500247001648 0.0)
      ( 2.7194809913635254 -0.09824399650096893 0.0)
      ( 2.7175040245056152 -0.09920100122690201 0.0)
      ( 2.7155261039733887 -0.10015500336885452 0.0)
      ( 2.713547945022583 -0.10110799968242645 0.0)
      ( 2.7115681171417236 -0.10205800086259842 0.0)
      ( 2.709588050842285 -0.1030070036649704 0.0)
      ( 2.7076070308685303 -0.10395299643278122 0.0)
      ( 2.705625057220459 -0.10489799827337265 0.0)
      ( 2.703641891479492 -0.10583999752998352 0.0)
      ( 2.701658010482788 -0.1067809984087944 0.0)
      ( 2.6996729373931885 -0.10771899670362473 0.0)
      ( 2.697688102722168 -0.10865499824285507 0.0)
      ( 2.6957008838653564 -0.10958900302648544 0.0)
      ( 2.6937129497528076 -0.11052100360393524 0.0)
      ( 2.6917240619659424 -0.11145099997520447 0.0)
      ( 2.689734935760498 -0.11237899959087372 0.0)
      ( 2.687743902206421 -0.11330399662256241 0.0)
      ( 2.6857519149780273 -0.11422699689865112 0.0)
      ( 2.6837589740753174 -0.11514800041913986 0.0)
      ( 2.681765079498291 -0.11606600135564804 0.0)
      ( 2.6797690391540527 -0.11698299646377563 0.0)
      ( 2.6777729988098145 -0.11789699643850327 0.0)
      ( 2.6757750511169434 -0.11880800127983093 0.0)
      ( 2.6737771034240723 -0.11971800029277802 0.0)
      ( 2.6717770099639893 -0.12062499672174454 0.0)
      ( 2.66977596282959 -0.12152999639511108 0.0)
      ( 2.667773962020874 -0.12243299931287766 0.0)
      ( 2.665771007537842 -0.12333299964666367 0.0)
      ( 2.6637680530548096 -0.12423200160264969 0.0)
      ( 2.6617629528045654 -0.12512800097465515 0.0)
      ( 2.659756898880005 -0.12602199614048004 0.0)
      ( 2.657749891281128 -0.12691499292850494 0.0)
      ( 2.655742883682251 -0.12780499458312988 0.0)
      ( 2.653733968734741 -0.12869299948215485 0.0)
      ( 2.6517250537872314 -0.12957899272441864 0.0)
      ( 2.649714946746826 -0.13046400249004364 0.0)
      ( 2.6477038860321045 -0.13134600222110748 0.0)
      ( 2.6456921100616455 -0.13222600519657135 0.0)
      ( 2.643678903579712 -0.13310399651527405 0.0)
      ( 2.6416659355163574 -0.13398000597953796 0.0)
      ( 2.63965106010437 -0.1348540037870407 0.0)
      ( 2.6376349925994873 -0.1357250064611435 0.0)
      ( 2.6356189250946045 -0.1365939974784851 0.0)
      ( 2.633600950241089 -0.13745999336242676 0.0)
      ( 2.8060319423675537 -0.01513999979943037 0.0)
      ( 2.8060319423675537 -0.014480999670922756 0.0)
      ( 2.8060319423675537 -0.013822999782860279 0.0)
      ( 2.8060319423675537 -0.013163999654352665 0.0)
      ( 2.8060309886932373 -0.012505000457167625 0.0)
      ( 2.8060309886932373 -0.011846000328660011 0.0)
      ( 2.8060309886932373 -0.011187000200152397 0.0)
      ( 2.8060309886932373 -0.01052900031208992 0.0)
      ( 2.8060309886932373 -0.009870000183582306 0.0)
      ( 2.8060309886932373 -0.009211000055074692 0.0)
      ( 2.8060309886932373 -0.008551999926567078 0.0)
      ( 2.8060309886932373 -0.008418000303208828 0.0)
      ( 2.8060309886932373 -0.00828499998897314 0.0)
      ( 2.8060309886932373 -0.008151000365614891 0.0)
      ( 2.8060309886932373 -0.008018000051379204 0.0)
      ( 2.8060309886932373 -0.007884000428020954 0.0)
      ( 2.8060309886932373 -0.00774999987334013 0.0)
      ( 2.8060309886932373 -0.00761700002476573 0.0)
      ( 2.8060309886932373 -0.007482999935746193 0.0)
      ( 2.8060309886932373 -0.007348999846726656 0.0)
      ( 2.8060309886932373 -0.007215999998152256 0.0)
      ( 2.8060309886932373 -0.007081999909132719 0.0)
      ( 2.8060309886932373 -0.006949000060558319 0.0)
      ( 2.8060309886932373 -0.006814999971538782 0.0)
      ( 2.8060309886932373 -0.006680999882519245 0.0)
      ( 2.8060309886932373 -0.006548000033944845 0.0)
      ( 2.8060309886932373 -0.006413999944925308 0.0)
      ( 2.8060309886932373 -0.006147000007331371 0.0)
      ( 2.8060309886932373 -0.005880000069737434 0.0)
      ( 2.8060309886932373 -0.005745999980717897 0.0)
      ( 2.8060309886932373 -0.0056119998916983604 0.0)
      ( 2.8060309886932373 -0.0054790000431239605 0.0)
      ( 2.8060309886932373 -0.0053449999541044235 0.0)
      ( 2.8060309886932373 -0.0052109998650848866 0.0)
      ( 2.8060309886932373 -0.005078000016510487 0.0)
      ( 2.8060309886932373 -0.00494399992749095 0.0)
      ( 2.8060309886932373 -0.00481100007891655 0.0)
      ( 2.8060309886932373 -0.004676999989897013 0.0)
      ( 2.8060309886932373 -0.004542999900877476 0.0)
      ( 2.8060309886932373 -0.004410000052303076 0.0)
      ( 2.8060309886932373 -0.004275999963283539 0.0)
      ( 2.8060309886932373 -0.004141999874264002 0.0)
      ( 2.8060309886932373 -0.004009000025689602 0.0)
      ( 2.8060309886932373 -0.003874999936670065 0.0)
      ( 2.8060309886932373 -0.003742000088095665 0.0)
      ( 2.8060309886932373 -0.003473999910056591 0.0)
      ( 2.8060309886932373 -0.003206999972462654 0.0)
      ( 2.8060309886932373 -0.003073000116273761 0.0)
      ( 2.8060309886932373 -0.002940000034868717 0.0)
      ( 2.8060309886932373 -0.0028059999458491802 0.0)
      ( 2.8060309886932373 -0.0027389999013394117 0.0)
      ( 2.8060309886932373 -0.0026730000972747803 0.0)
      ( 2.8060309886932373 -0.002606000052765012 0.0)
      ( 2.8060309886932373 -0.0025390000082552433 0.0)
      ( 2.8060309886932373 -0.002471999963745475 0.0)
      ( 2.8060309886932373 -0.0024049999192357063 0.0)
      ( 2.8060309886932373 -0.0023380001075565815 0.0)
      ( 2.8060309886932373 -0.0022720000706613064 0.0)
      ( 2.8060309886932373 -0.002205000026151538 0.0)
      ( 2.8060309886932373 -0.0021379999816417694 0.0)
      ( 2.8060309886932373 -0.002070999937132001 0.0)
      ( 2.8060309886932373 -0.0020039998926222324 0.0)
      ( 2.8060309886932373 -0.0019379999721422791 0.0)
      ( 2.8060309886932373 -0.0018710000440478325 0.0)
      ( 2.8060309886932373 -0.001803999999538064 0.0)
      ( 2.8060309886932373 -0.0017369999550282955 0.0)
      ( 2.8060309886932373 -0.0016700000269338489 0.0)
      ( 2.8060309886932373 -0.0016039999900385737 0.0)
      ( 2.8060309886932373 -0.0015369999455288053 0.0)
      ( 2.8060309886932373 -0.0014700000174343586 0.0)
      ( 2.8060309886932373 -0.0014029999729245901 0.0)
      ( 2.8060309886932373 -0.0013360000448301435 0.0)
      ( 2.8060309886932373 -0.001269000000320375 0.0)
      ( 2.8060309886932373 -0.0012029999634250998 0.0)
      ( 2.8060309886932373 -0.0011360000353306532 0.0)
      ( 2.8060309886932373 -0.0010689999908208847 0.0)
      ( 2.8060309886932373 -0.0010019999463111162 0.0)
      ( 2.8060309886932373 -9.350000182166696E-4 0.0)
      ( 2.8060309886932373 -8.689999813213944E-4 0.0)
      ( 2.8060309886932373 -8.019999950192869E-4 0.0)
      ( 2.8060309886932373 -7.350000087171793E-4 0.0)
      ( 2.8060309886932373 -6.680000224150717E-4 0.0)
      ( 2.8060309886932373 -6.009999779053032E-4 0.0)
      ( 2.8060309886932373 -5.34999999217689E-4 0.0)
      ( 2.8060309886932373 -4.6800001291558146E-4 0.0)
      ( 2.8060309886932373 -4.0099999750964344E-4 0.0)
      ( 2.8060309886932373 -3.3400001120753586E-4 0.0)
      ( 2.8060309886932373 -2.6699999580159783E-4 0.0)
      ( 2.8060309886932373 -1.9999999494757503E-4 0.0)
      ( 2.8060309886932373 -1.340000017080456E-4 0.0)
      ( 2.8060309886932373 -6.70000008540228E-5 0.0)
      ( 2.8060309886932373 0.0 0.0)
      ( 2.631582021713257 -0.13832400739192963 0.0)
      ( 2.629563093185425 -0.13918499648571014 0.0)
      ( 2.627542018890381 -0.1400430053472519 0.0)
      ( 2.6255199909210205 -0.14089900255203247 0.0)
      ( 2.6234960556030273 -0.14175200462341309 0.0)
      ( 2.6214709281921387 -0.14260099828243256 0.0)
      ( 2.619446039199829 -0.14344799518585205 0.0)
      ( 2.6174190044403076 -0.1442909985780716 0.0)
      ( 2.6153900623321533 -0.14513100683689117 0.0)
      ( 2.6133599281311035 -0.1459680050611496 0.0)
      ( 2.6113290786743164 -0.14680099487304688 0.0)
      ( 2.6092960834503174 -0.14763100445270538 0.0)
      ( 2.607261896133423 -0.14845700562000275 0.0)
      ( 2.605226993560791 -0.14927999675273895 0.0)
      ( 2.603188991546631 -0.1500989943742752 0.0)
      ( 2.6011509895324707 -0.1509139984846115 0.0)
      ( 2.5991110801696777 -0.15172499418258667 0.0)
      ( 2.597069025039673 -0.15253199636936188 0.0)
      ( 2.595025062561035 -0.15333600342273712 0.0)
      ( 2.592979907989502 -0.15413500368595123 0.0)
      ( 2.590933084487915 -0.1549289971590042 0.0)
      ( 2.5888850688934326 -0.15571999549865723 0.0)
      ( 2.586833953857422 -0.1565060019493103 0.0)
      ( 2.5847818851470947 -0.15728799998760223 0.0)
      ( 2.5827279090881348 -0.15806500613689423 0.0)
      ( 2.5806729793548584 -0.15883700549602509 0.0)
      ( 2.5786149501800537 -0.1596049964427948 0.0)
      ( 2.5765559673309326 -0.16036899387836456 0.0)
      ( 2.5744950771331787 -0.1611270010471344 0.0)
      ( 2.572432041168213 -0.1618809998035431 0.0)
      ( 2.5703670978546143 -0.16263000667095184 0.0)
      ( 2.56830096244812 -0.16337400674819946 0.0)
      ( 2.566232919692993 -0.16411399841308594 0.0)
      ( 2.56416392326355 -0.16484799981117249 0.0)
      ( 2.5620930194854736 -0.1655779927968979 0.0)
      ( 2.5600199699401855 -0.16630199551582336 0.0)
      ( 2.5579450130462646 -0.1670220047235489 0.0)
      ( 2.5558691024780273 -0.1677359938621521 0.0)
      ( 2.553791046142578 -0.16844600439071655 0.0)
      ( 2.5517120361328125 -0.1691499948501587 0.0)
      ( 2.5495669841766357 -0.16987299919128418 0.0)
      ( 2.5474209785461426 -0.1705929934978485 0.0)
      ( 2.5452749729156494 -0.17131200432777405 0.0)
      ( 2.54312801361084 -0.17202900350093842 0.0)
      ( 2.5409789085388184 -0.1727450042963028 0.0)
      ( 2.5388309955596924 -0.17345799505710602 0.0)
      ( 2.536681890487671 -0.17417000234127045 0.0)
      ( 2.534532070159912 -0.1748799979686737 0.0)
      ( 2.532381057739258 -0.17558899521827698 0.0)
      ( 2.5302300453186035 -0.17629499733448029 0.0)
      ( 2.528078079223633 -0.1770000010728836 0.0)
      ( 2.525926113128662 -0.17770400643348694 0.0)
      ( 2.523772954940796 -0.1784050017595291 0.0)
      ( 2.521620035171509 -0.1791049987077713 0.0)
      ( 2.519465923309326 -0.1798039972782135 0.0)
      ( 2.5173120498657227 -0.18050000071525574 0.0)
      ( 2.5151569843292236 -0.18119500577449799 0.0)
      ( 2.5130019187927246 -0.18188899755477905 0.0)
      ( 2.510845899581909 -0.18257999420166016 0.0)
      ( 2.508690118789673 -0.18327000737190247 0.0)
      ( 2.506532907485962 -0.1839579939842224 0.0)
      ( 2.50437593460083 -0.18464499711990356 0.0)
      ( 2.502218008041382 -0.18532900512218475 0.0)
      ( 2.500058889389038 -0.18601199984550476 0.0)
      ( 2.4979000091552734 -0.1866929978132248 0.0)
      ( 2.4957399368286133 -0.18737199902534485 0.0)
      ( 2.4935801029205322 -0.18804900348186493 0.0)
      ( 2.4914190769195557 -0.18872399628162384 0.0)
      ( 2.4892570972442627 -0.18939700722694397 0.0)
      ( 2.487093925476074 -0.19006699323654175 0.0)
      ( 2.484930992126465 -0.19073599576950073 0.0)
      ( 2.482767105102539 -0.19140300154685974 0.0)
      ( 2.4811270236968994 -0.19190600514411926 0.0)
      ( 2.4794859886169434 -0.19240699708461761 0.0)
      ( 2.477843999862671 -0.19290600717067719 0.0)
      ( 2.4762020111083984 -0.19340300559997559 0.0)
      ( 2.4745590686798096 -0.193898007273674 0.0)
      ( 2.472914934158325 -0.19438999891281128 0.0)
      ( 2.47127103805542 -0.19488100707530975 0.0)
      ( 2.469625949859619 -0.19536900520324707 0.0)
      ( 2.4679811000823975 -0.1958550065755844 0.0)
      ( 2.4663350582122803 -0.19633899629116058 0.0)
      ( 2.464689016342163 -0.19682100415229797 0.0)
      ( 2.4630420207977295 -0.1973010003566742 0.0)
      ( 2.4613940715789795 -0.19777899980545044 0.0)
      ( 2.459744930267334 -0.19825400412082672 0.0)
      ( 2.458096981048584 -0.19872799515724182 0.0)
      ( 2.456446886062622 -0.19919900596141815 0.0)
      ( 2.4547970294952393 -0.1996690034866333 0.0)
      ( 2.453145980834961 -0.2001360058784485 0.0)
      ( 2.4514949321746826 -0.2006009966135025 0.0)
      ( 2.449842929840088 -0.20106400549411774 0.0)
      ( 2.4481899738311768 -0.2015250027179718 0.0)
      ( 2.4465370178222656 -0.2019840031862259 0.0)
      ( 2.4448840618133545 -0.20243999361991882 0.0)
      ( 2.443229913711548 -0.20289500057697296 0.0)
      ( 2.441575050354004 -0.20334799587726593 0.0)
      ( 2.439919948577881 -0.20379799604415894 0.0)
      ( 2.4382638931274414 -0.20424699783325195 0.0)
      ( 2.436608076095581 -0.204693004488945 0.0)
      ( 2.434951066970825 -0.20513799786567688 0.0)
      ( 2.433293104171753 -0.2055799961090088 0.0)
      ( 2.4316349029541016 -0.20601999759674072 0.0)
      ( 2.429975986480713 -0.20645800232887268 0.0)
      ( 2.428317070007324 -0.20689499378204346 0.0)
      ( 2.4266579151153564 -0.20732900500297546 0.0)
      ( 2.424997091293335 -0.2077610045671463 0.0)
      ( 2.423336982727051 -0.20819100737571716 0.0)
      ( 2.421674966812134 -0.20861899852752686 0.0)
      ( 2.420012950897217 -0.20904499292373657 0.0)
      ( 2.4183509349823 -0.20946800708770752 0.0)
      ( 2.4166879653930664 -0.2098899930715561 0.0)
      ( 2.415024995803833 -0.21030999720096588 0.0)
      ( 2.413361072540283 -0.2107270061969757 0.0)
      ( 2.411695957183838 -0.21114300191402435 0.0)
      ( 2.8060309886932373 6.70000008540228E-5 0.0)
      ( 2.8060309886932373 1.340000017080456E-4 0.0)
      ( 2.8060309886932373 1.9999999494757503E-4 0.0)
      ( 2.8060309886932373 2.6699999580159783E-4 0.0)
      ( 2.8060309886932373 3.3400001120753586E-4 0.0)
      ( 2.8060309886932373 4.0099999750964344E-4 0.0)
      ( 2.8060309886932373 4.6800001291558146E-4 0.0)
      ( 2.8060309886932373 5.339999916031957E-4 0.0)
      ( 2.8060309886932373 6.009999779053032E-4 0.0)
      ( 2.8060309886932373 6.680000224150717E-4 0.0)
      ( 2.8060309886932373 7.350000087171793E-4 0.0)
      ( 2.8060309886932373 8.019999950192869E-4 0.0)
      ( 2.8060309886932373 8.689999813213944E-4 0.0)
      ( 2.8060309886932373 9.350000182166696E-4 0.0)
      ( 2.8060309886932373 0.0010019999463111162 0.0)
      ( 2.8060309886932373 0.0010689999908208847 0.0)
      ( 2.8060309886932373 0.0011360000353306532 0.0)
      ( 2.8060309886932373 0.0012029999634250998 0.0)
      ( 2.8060309886932373 0.001269000000320375 0.0)
      ( 2.8060309886932373 0.0013360000448301435 0.0)
      ( 2.8060309886932373 0.0014029999729245901 0.0)
      ( 2.8060309886932373 0.0014700000174343586 0.0)
      ( 2.8060309886932373 0.0015369999455288053 0.0)
      ( 2.8060309886932373 0.0016029999824240804 0.0)
      ( 2.8060309886932373 0.0016700000269338489 0.0)
      ( 2.8060309886932373 0.0017369999550282955 0.0)
      ( 2.8060309886932373 0.001803999999538064 0.0)
      ( 2.8060309886932373 0.0018710000440478325 0.0)
      ( 2.8060309886932373 0.0019379999721422791 0.0)
      ( 2.8060309886932373 0.0020039998926222324 0.0)
      ( 2.8060309886932373 0.002070999937132001 0.0)
      ( 2.8060309886932373 0.0021379999816417694 0.0)
      ( 2.8060309886932373 0.002205000026151538 0.0)
      ( 2.8060309886932373 0.0022720000706613064 0.0)
      ( 2.8060309886932373 0.0023380001075565815 0.0)
      ( 2.8060309886932373 0.0024049999192357063 0.0)
      ( 2.8060309886932373 0.002471999963745475 0.0)
      ( 2.8060309886932373 0.0025390000082552433 0.0)
      ( 2.8060309886932373 0.002606000052765012 0.0)
      ( 2.8060309886932373 0.002672000089660287 0.0)
      ( 2.8060309886932373 0.0027389999013394117 0.0)
      ( 2.8060309886932373 0.0028059999458491802 0.0)
      ( 2.8060309886932373 0.002940000034868717 0.0)
      ( 2.8060309886932373 0.003073000116273761 0.0)
      ( 2.8060309886932373 0.003206999972462654 0.0)
      ( 2.8060309886932373 0.003473999910056591 0.0)
      ( 2.8060309886932373 0.0037410000804811716 0.0)
      ( 2.8060309886932373 0.003874999936670065 0.0)
      ( 2.8060309886932373 0.004009000025689602 0.0)
      ( 2.8060309886932373 0.004141999874264002 0.0)
      ( 2.8060309886932373 0.004275999963283539 0.0)
      ( 2.8060309886932373 0.004410000052303076 0.0)
      ( 2.8060309886932373 0.004542999900877476 0.0)
      ( 2.8060309886932373 0.004676999989897013 0.0)
      ( 2.8060309886932373 0.00481100007891655 0.0)
      ( 2.8060309886932373 0.00494399992749095 0.0)
      ( 2.8060309886932373 0.005078000016510487 0.0)
      ( 2.8060319423675537 0.0052109998650848866 0.0)
      ( 2.8060319423675537 0.0053449999541044235 0.0)
      ( 2.8060319423675537 0.0054790000431239605 0.0)
      ( 2.8060319423675537 0.0056119998916983604 0.0)
      ( 2.8060319423675537 0.005745999980717897 0.0)
      ( 2.8060319423675537 0.005880000069737434 0.0)
      ( 2.8060319423675537 0.006147000007331371 0.0)
      ( 2.8060319423675537 0.006413999944925308 0.0)
      ( 2.8060319423675537 0.006548000033944845 0.0)
      ( 2.8060319423675537 0.006680999882519245 0.0)
      ( 2.8060319423675537 0.006814999971538782 0.0)
      ( 2.8060319423675537 0.006949000060558319 0.0)
      ( 2.8060319423675537 0.007081999909132719 0.0)
      ( 2.8060319423675537 0.007215999998152256 0.0)
      ( 2.8060319423675537 0.007348999846726656 0.0)
      ( 2.8060319423675537 0.007482999935746193 0.0)
      ( 2.8060319423675537 0.00761700002476573 0.0)
      ( 2.8060319423675537 0.00774999987334013 0.0)
      ( 2.8060319423675537 0.007884000428020954 0.0)
      ( 2.8060319423675537 0.008018000051379204 0.0)
      ( 2.8060319423675537 0.008151000365614891 0.0)
      ( 2.8060319423675537 0.00828499998897314 0.0)
      ( 2.8060319423675537 0.008418000303208828 0.0)
      ( 2.8060319423675537 0.008551999926567078 0.0)
      ( 2.8060319423675537 0.009211000055074692 0.0)
      ( 2.8060319423675537 0.009870000183582306 0.0)
      ( 2.8060319423675537 0.010528000071644783 0.0)
      ( 2.8060319423675537 0.011187000200152397 0.0)
      ( 2.8060319423675537 0.011846000328660011 0.0)
      ( 2.8060319423675537 0.012505000457167625 0.0)
      ( 2.8060319423675537 0.013163999654352665 0.0)
      ( 2.8060319423675537 0.013821999542415142 0.0)
      ( 2.8060319423675537 0.014480999670922756 0.0)
      ( 2.8060319423675537 0.01513999979943037 0.0)
      ( 2.8060319423675537 0.01579900085926056 0.0)
      ( 2.8060319423675537 0.016457999125123024 0.0)
      ( 2.8060319423675537 0.017116999253630638 0.0)
      ( 2.8060319423675537 0.017774999141693115 0.0)
      ( 2.8060319423675537 0.01843399927020073 0.0)
      ( 2.8060319423675537 0.019092999398708344 0.0)
      ( 2.8060319423675537 0.019751999527215958 0.0)
      ( 2.8060319423675537 0.020410999655723572 0.0)
      ( 2.8060319423675537 0.02106899954378605 0.0)
      ( 2.8060319423675537 0.021399000659585 0.0)
      ( 2.80603289604187 0.021727999672293663 0.0)
      ( 2.80603289604187 0.022058000788092613 0.0)
      ( 2.80603289604187 0.022386999800801277 0.0)
      ( 2.80603289604187 0.02304599992930889 0.0)
      ( 2.80603289604187 0.023705000057816505 0.0)
      ( 2.80603289604187 0.024362999945878983 0.0)
      ( 2.80603289604187 0.024692999199032784 0.0)
      ( 2.80603289604187 0.025022000074386597 0.0)
      ( 2.80603289604187 0.025351999327540398 0.0)
      ( 2.80603289604187 0.02568100020289421 0.0)
      ( 2.80603289604187 0.026009999215602875 0.0)
      ( 2.80603289604187 0.026340000331401825 0.0)
      ( 2.80603289604187 0.02666899934411049 0.0)
      ( 2.80603289604187 0.02699900045990944 0.0)
      ( 2.80603289604187 0.027327999472618103 0.0)
      ( 2.80603289604187 0.027657000347971916 0.0)
      ( 2.80603289604187 0.027986999601125717 0.0)
      ( 2.80603289604187 0.02831600047647953 0.0)
      ( 2.80603289604187 0.02864599972963333 0.0)
      ( 2.80603289604187 0.028975000604987144 0.0)
      ( 2.80603289604187 0.02930399961769581 0.0)
      ( 2.80603289604187 0.02963400073349476 0.0)
      ( 2.80603289604187 0.029962999746203423 0.0)
      ( 2.80603289604187 0.030293000862002373 0.0)
      ( 2.80603289604187 0.030621999874711037 0.0)
      ( 2.80603289604187 0.030951999127864838 0.0)
      ( 2.80603289604187 0.0312809981405735 0.0)
      ( 2.8060340881347656 0.031610000878572464 0.0)
      ( 2.8060340881347656 0.031939998269081116 0.0)
      ( 2.8060340881347656 0.03226900100708008 0.0)
      ( 2.8060340881347656 0.03259899839758873 0.0)
      ( 2.8060340881347656 0.03292800113558769 0.0)
      ( 2.8060340881347656 0.033257000148296356 0.0)
      ( 2.8060340881347656 0.033587001264095306 0.0)
      ( 2.8060340881347656 0.03391600027680397 0.0)
      ( 2.8060340881347656 0.03424600139260292 0.0)
      ( 2.8060340881347656 0.034575000405311584 0.0)
      ( 2.8060340881347656 0.03490399941802025 0.0)
      ( 2.8060340881347656 0.0352340005338192 0.0)