/*--------------------------------*- C++ -*----------------------------------*\
| =========                 |                                                 |
| \\      /  F ield         | OpenFOAM: The Open Source CFD Toolbox           |
|  \\    /   O peration     | Version:  2.4.x                                 |
|   \\  /    A nd           | Web:      www.OpenFOAM.org                      |
|    \\/     M anipulation  |                                                 |
\*---------------------------------------------------------------------------*/
FoamFile
{
    version     2.0;
    format      ascii;
    class       featureEdgeMesh;
    note        "written 2018-11-13T13:10:03";
    location    "";
    object      kvlcc2_line1b-mirrored.eMesh;
}
// * * * * * * * * * * * * * * * * * * * * * * * * * * * * * * * * * * * * * //


// points:

415
(
(2.80602 -0.050528 -0.000103)
(2.80602 -0.050705 6.20957e-18)
(2.80602 -0.050359 -0.0002)
(2.80602 -0.050523 -0.000101)
(2.80602 -0.050705 6.20957e-18)
(2.80602 -0.050197 -0.000292)
(2.80602 -0.050044 -0.000379)
(2.80602 -0.050521 -0.000101)
(2.80602 -0.050344 -0.000196)
(2.80602 -0.050511 -9.8e-05)
(2.80602 -0.050706 6.20969e-18)
(2.80602 -0.049912 -0.000453)
(2.80602 -0.049785 -0.000524)
(2.80602 -0.049664 -0.000592)
(2.80602 -0.049548 -0.000656)
(2.80602 -0.050506 -9.6e-05)
(2.80602 -0.050706 6.20969e-18)
(2.80602 -0.049329 -0.000776)
(2.80602 -0.049125 -0.000887)
(2.80602 -0.048932 -0.000991)
(2.80602 -0.048747 -0.001089)
(2.80601 -0.048567 -0.001184)
(2.80601 -0.048389 -0.001278)
(2.80601 -0.048028 -0.001469)
(2.80602 -0.050492 -9.2e-05)
(2.80602 -0.050706 6.20969e-18)
(2.80602 -0.05049 -9.1e-05)
(2.80602 -0.05028 -0.000177)
(2.80602 -0.05048 -8.8e-05)
(2.80602 -0.050707 6.20982e-18)
(2.80602 -0.050475 -8.6e-05)
(2.80602 -0.050707 6.20982e-18)
(2.80601 -0.047661 -0.001662)
(2.80601 -0.047287 -0.001859)
(2.80601 -0.046907 -0.002059)
(2.80601 -0.046129 -0.002464)
(2.80601 -0.045731 -0.00267)
(2.80601 -0.045327 -0.002877)
(2.80601 -0.044918 -0.003084)
(2.80601 -0.044504 -0.003293)
(2.80601 -0.044084 -0.003501)
(2.80601 -0.043659 -0.003709)
(2.80602 -0.043229 -0.003917)
(2.80602 -0.042795 -0.004124)
(2.80602 -0.042356 -0.00433)
(2.80602 -0.041912 -0.004534)
(2.80602 -0.050463 -8.2e-05)
(2.80602 -0.050461 -8.1e-05)
(2.80602 -0.050707 6.20982e-18)
(2.80602 -0.050221 -0.000158)
(2.80602 -0.050449 -7.7e-05)
(2.80602 -0.050708 6.20994e-18)
(2.80602 -0.050441 -7.4e-05)
(2.80602 -0.050708 6.20994e-18)
(2.80602 -0.050427 -6.9e-05)
(2.80602 -0.050708 6.20994e-18)
(2.80602 -0.050424 -6.8e-05)
(2.80602 -0.050146 -0.000132)
(2.80602 -0.05042 -6.6e-05)
(2.80602 -0.050709 6.21006e-18)
(2.80602 -0.050412 -6.3e-05)
(2.80602 -0.05041 -6.2e-05)
(2.80602 -0.050709 6.21006e-18)
(2.80602 -0.050117 -0.00012)
(2.80602 -0.041465 -0.004736)
(2.80602 -0.041018 -0.004935)
(2.80602 -0.040573 -0.005131)
(2.80602 -0.040136 -0.005321)
(2.80602 -0.039709 -0.005505)
(2.80602 -0.039296 -0.005682)
(2.80602 -0.038901 -0.005852)
(2.80602 -0.038528 -0.006012)
(2.80602 -0.038176 -0.006164)
(2.80602 -0.037834 -0.006311)
(2.80602 -0.037486 -0.00646)
(2.80602 -0.037305 -0.006537)
(2.80602 -0.037116 -0.006616)
(2.80602 -0.036917 -0.006699)
(2.80602 -0.036707 -0.006785)
(2.80602 -0.036483 -0.006877)
(2.80602 -0.036244 -0.006974)
(2.80602 -0.035988 -0.007076)
(2.80602 -0.035711 -0.007186)
(2.80602 -0.035414 -0.007303)
(2.80602 -0.035093 -0.007429)
(2.80602 -0.034747 -0.007563)
(2.80602 -0.034377 -0.007706)
(2.80602 -0.033985 -0.007857)
(2.80602 -0.033571 -0.008014)
(2.80602 -0.033137 -0.008178)
(2.80602 -0.032685 -0.008347)
(2.80602 -0.032216 -0.008522)
(2.80602 -0.050399 -5.7e-05)
(2.80602 -0.050397 -5.6e-05)
(2.80602 -0.050709 6.21006e-18)
(2.80602 -0.050089 -0.000108)
(2.80602 -0.05039 -5.3e-05)
(2.80602 -0.05071 6.21018e-18)
(2.80603 -0.050383 -4.9e-05)
(2.80603 -0.05071 6.21018e-18)
(2.80603 -0.050376 -4.6e-05)
(2.80603 -0.050046 -8.8e-05)
(2.80603 -0.050375 -4.5e-05)
(2.80603 -0.05071 6.21018e-18)
(2.80603 -0.050044 -8.7e-05)
(2.80603 -0.049717 -0.000127)
(2.80603 -0.050371 -4.3e-05)
(2.80603 -0.050711 6.21031e-18)
(2.80603 -0.050369 -4.1e-05)
(2.80603 -0.050368 -4e-05)
(2.80603 -0.050711 6.21031e-18)
(2.80603 -0.050028 -7.8e-05)
(2.80603 -0.050365 -3.8e-05)
(2.80603 -0.050363 -3.7e-05)
(2.80603 -0.050711 6.21031e-18)
(2.80603 -0.050018 -7.2e-05)
(2.80603 -0.050361 -3.6e-05)
(2.80603 -0.050712 6.21043e-18)
(2.80603 -0.050357 -3.3e-05)
(2.80603 -0.050355 -3.2e-05)
(2.80603 -0.050712 6.21043e-18)
(2.80603 -0.050001 -6.3e-05)
(2.80603 -0.050349 -2.8e-05)
(2.80603 -0.050712 6.21043e-18)
(2.80603 -0.050347 -2.7e-05)
(2.80603 -0.050713 6.21055e-18)
(2.80603 -0.050343 -2.4e-05)
(2.80603 -0.050713 6.21055e-18)
(2.80603 -0.050336 -1.9e-05)
(2.80603 -0.050714 6.21067e-18)
(2.80603 -0.05033 -1.5e-05)
(2.80603 -0.050714 6.21067e-18)
(2.80603 -0.050323 -1e-05)
(2.80603 -0.050715 6.2108e-18)
(2.80604 -0.05032 -8e-06)
(2.80604 -0.050715 6.2108e-18)
(2.80604 -0.050315 -4e-06)
(2.80604 -0.049914 -7e-06)
(2.80604 -0.050313 -3e-06)
(2.80604 -0.050716 6.21092e-18)
(2.80604 -0.049912 -6e-06)
(2.80604 -0.04951 -8e-06)
(2.80604 -0.050309 6.16108e-18)
(2.80604 -0.049903 6.11136e-18)
(2.80604 -0.049497 6.06163e-18)
(2.80604 -0.04909 6.01179e-18)
(2.80604 -0.048723 5.96685e-18)
(2.80604 -0.048357 5.92202e-18)
(2.80604 -0.04799 5.87708e-18)
(2.80604 -0.047623 5.83214e-18)
(2.80604 -0.046889 5.74225e-18)
(2.80604 -0.046155 5.65236e-18)
(2.80604 -0.045421 5.56247e-18)
(2.80604 -0.044687 5.47258e-18)
(2.80604 -0.043953 5.38269e-18)
(2.80604 -0.043219 5.2928e-18)
(2.80604 -0.041751 5.11302e-18)
(2.80604 -0.040283 4.93324e-18)
(2.80604 -0.038816 4.75359e-18)
(2.80604 -0.037348 4.57381e-18)
(2.80604 -0.034412 4.21425e-18)
(2.80604 -0.032944 4.03448e-18)
(2.80604 -0.031476 3.8547e-18)
(2.80604 -0.030009 3.67504e-18)
(2.80604 -0.028541 3.49526e-18)
(2.80604 -0.027073 3.31549e-18)
(2.80604 -0.025605 3.13571e-18)
(2.80604 -0.024137 2.95593e-18)
(2.80604 -0.022669 2.77615e-18)
(2.80604 -0.021202 2.5965e-18)
(2.80604 -0.019734 2.41672e-18)
(2.80604 -0.018266 2.23694e-18)
(2.80604 -0.016798 2.05716e-18)
(2.80604 -0.01533 1.87738e-18)
(2.80604 -0.013862 1.69761e-18)
(2.80604 -0.012395 1.51795e-18)
(2.80604 -0.010927 1.33817e-18)
(2.80604 -0.009459 1.15839e-18)
(2.80604 -0.007991 9.78615e-19)
(2.80604 -0.006523 7.98837e-19)
(2.80604 -0.005055 6.19059e-19)
(2.80604 -0.003588 4.39403e-19)
(2.80604 -0.002854 3.49514e-19)
(2.80604 -0.00212 2.59625e-19)
(2.80604 -0.001386 1.69736e-19)
(2.80604 -0.000652 7.9847e-20)
(2.80604 8.2e-05 -1.00421e-20)
(2.80604 0.000816 -9.99312e-20)
(2.80604 0.00155 -1.8982e-19)
(2.80604 0.002284 -2.79709e-19)
(2.80604 0.003018 -3.69598e-19)
(2.80604 0.003752 -4.59487e-19)
(2.80604 0.004486 -5.49377e-19)
(2.80604 0.005219 -6.39143e-19)
(2.80604 0.005953 -7.29032e-19)
(2.80604 0.006687 -8.18921e-19)
(2.80604 0.007421 -9.0881e-19)
(2.80604 0.008155 -9.987e-19)
(2.80604 0.008889 -1.08859e-18)
(2.80602 -0.031731 -0.0087)
(2.80602 -0.031232 -0.008883)
(2.80602 -0.030721 -0.009068)
(2.80602 -0.030197 -0.009256)
(2.80602 -0.029664 -0.009445)
(2.80602 -0.029122 -0.009635)
(2.80602 -0.028573 -0.009826)
(2.80602 -0.028017 -0.010016)
(2.80602 -0.027458 -0.010205)
(2.80602 -0.026895 -0.010393)
(2.80602 -0.026329 -0.010579)
(2.80602 -0.02576 -0.010763)
(2.80602 -0.02519 -0.010945)
(2.80602 -0.024617 -0.011126)
(2.80602 -0.024042 -0.011305)
(2.80602 -0.023466 -0.011482)
(2.80602 -0.022888 -0.011658)
(2.80602 -0.02231 -0.011832)
(2.80602 -0.02173 -0.012004)
(2.80602 -0.02115 -0.012175)
(2.80602 -0.02057 -0.012343)
(2.80602 -0.019989 -0.01251)
(2.80602 -0.019409 -0.012676)
(2.80602 -0.018829 -0.012839)
(2.80602 -0.01825 -0.013001)
(2.80602 -0.017671 -0.013161)
(2.80602 -0.017094 -0.01332)
(2.80602 -0.016517 -0.013476)
(2.80602 -0.015941 -0.013631)
(2.80602 -0.015366 -0.013784)
(2.80602 -0.014792 -0.013936)
(2.80602 -0.014219 -0.014086)
(2.80602 -0.013646 -0.014233)
(2.80602 -0.013073 -0.01438)
(2.80602 -0.012502 -0.014524)
(2.80602 -0.01193 -0.014667)
(2.80602 -0.01136 -0.014807)
(2.80602 -0.010789 -0.014946)
(2.80602 -0.01022 -0.015084)
(2.80602 -0.00965 -0.015219)
(2.80603 -0.009082 -0.015353)
(2.80603 -0.008513 -0.015484)
(2.80603 -0.007945 -0.015614)
(2.80603 -0.007377 -0.015742)
(2.80603 -0.006809 -0.015869)
(2.80603 -0.006241 -0.015993)
(2.80603 -0.005674 -0.016116)
(2.80603 -0.005107 -0.016236)
(2.80603 -0.004539 -0.016355)
(2.80603 -0.003972 -0.016472)
(2.80603 -0.003405 -0.016587)
(2.80603 -0.002838 -0.0167)
(2.80603 -0.002271 -0.016812)
(2.80603 -0.001704 -0.016921)
(2.80603 -0.001137 -0.017029)
(2.80603 -0.000569 -0.017134)
(2.80603 -1e-06 -0.017238)
(2.80603 0.000566 -0.017134)
(2.80603 0.001134 -0.017029)
(2.80603 0.001701 -0.016921)
(2.80603 0.002269 -0.016812)
(2.80603 0.002836 -0.0167)
(2.80603 0.003403 -0.016587)
(2.80603 0.00397 -0.016472)
(2.80603 0.004537 -0.016355)
(2.80603 0.005105 -0.016236)
(2.80603 0.005672 -0.016116)
(2.80603 0.00624 -0.015993)
(2.80603 0.006807 -0.015869)
(2.80603 0.007375 -0.015742)
(2.80603 0.007943 -0.015614)
(2.80603 0.008512 -0.015484)
(2.80603 0.00908 -0.015353)
(2.80603 0.009649 -0.015219)
(2.80603 0.010219 -0.015084)
(2.80603 0.010789 -0.014946)
(2.80603 0.011359 -0.014807)
(2.80603 0.01193 -0.014667)
(2.80603 0.012501 -0.014524)
(2.80603 0.013073 -0.01438)
(2.80603 0.013645 -0.014233)
(2.80603 0.014218 -0.014086)
(2.80603 0.014792 -0.013936)
(2.80603 0.015366 -0.013784)
(2.80603 0.015941 -0.013631)
(2.80603 0.016517 -0.013476)
(2.80603 0.017094 -0.01332)
(2.80603 0.017671 -0.013161)
(2.80603 0.01825 -0.013001)
(2.80603 0.018829 -0.012839)
(2.80603 0.019409 -0.012676)
(2.80603 0.01999 -0.01251)
(2.80603 0.02057 -0.012343)
(2.80603 0.021151 -0.012175)
(2.80603 0.021731 -0.012004)
(2.80603 0.022311 -0.011832)
(2.80603 0.02289 -0.011658)
(2.80603 0.023467 -0.011482)
(2.80603 0.024044 -0.011305)
(2.80603 0.024618 -0.011126)
(2.80603 0.025191 -0.010945)
(2.80603 0.025762 -0.010763)
(2.80603 0.026331 -0.010579)
(2.80603 0.026896 -0.010393)
(2.80603 0.02746 -0.010205)
(2.80603 0.028019 -0.010016)
(2.80603 0.028575 -0.009826)
(2.80603 0.029124 -0.009635)
(2.80603 0.029666 -0.009445)
(2.80604 0.009623 -1.17848e-18)
(2.80604 0.010357 -1.26837e-18)
(2.80604 0.011091 -1.35826e-18)
(2.80604 0.011825 -1.44814e-18)
(2.80604 0.012559 -1.53803e-18)
(2.80604 0.013293 -1.62792e-18)
(2.80604 0.014026 -1.71769e-18)
(2.80604 0.01476 -1.80758e-18)
(2.80604 0.015494 -1.89747e-18)
(2.80604 0.016228 -1.98736e-18)
(2.80604 0.016962 -2.07725e-18)
(2.80604 0.017696 -2.16714e-18)
(2.80604 0.01843 -2.25702e-18)
(2.80604 0.019164 -2.34691e-18)
(2.80604 0.019898 -2.4368e-18)
(2.80604 0.020632 -2.52669e-18)
(2.80604 0.021366 -2.61658e-18)
(2.80604 0.0221 -2.70647e-18)
(2.80604 0.022833 -2.79624e-18)
(2.80604 0.023567 -2.88613e-18)
(2.80604 0.024301 -2.97601e-18)
(2.80604 0.025035 -3.0659e-18)
(2.80604 0.025769 -3.15579e-18)
(2.80604 0.026503 -3.24568e-18)
(2.80604 0.027237 -3.33557e-18)
(2.80604 0.027971 -3.42546e-18)
(2.80604 0.028704 -3.51523e-18)
(2.80604 0.029438 -3.60512e-18)
(2.80604 0.030172 -3.695e-18)
(2.80603 0.0302 -0.009256)
(2.80603 0.030723 -0.009068)
(2.80603 0.031235 -0.008883)
(2.80603 0.031734 -0.0087)
(2.80603 0.032219 -0.008522)
(2.80603 0.032688 -0.008347)
(2.80603 0.033574 -0.008014)
(2.80603 0.03438 -0.007706)
(2.80603 0.03475 -0.007563)
(2.80603 0.035096 -0.007429)
(2.80603 0.035417 -0.007303)
(2.80603 0.035715 -0.007186)
(2.80603 0.035991 -0.007076)
(2.80603 0.036248 -0.006973)
(2.80603 0.036487 -0.006877)
(2.80603 0.036711 -0.006785)
(2.80603 0.03712 -0.006616)
(2.80603 0.037491 -0.00646)
(2.80603 0.037839 -0.006311)
(2.80603 0.038181 -0.006164)
(2.80603 0.038533 -0.006012)
(2.80603 0.038906 -0.005852)
(2.80603 0.039301 -0.005682)
(2.80603 0.039714 -0.005505)
(2.80603 0.040142 -0.005321)
(2.80603 0.040579 -0.00513)
(2.80604 0.030906 -3.78489e-18)
(2.80604 0.031639 -3.87466e-18)
(2.80604 0.032373 -3.96455e-18)
(2.80604 0.033107 -4.05444e-18)
(2.80604 0.03384 -4.1442e-18)
(2.80604 0.034574 -4.23409e-18)
(2.80604 0.035308 -4.32398e-18)
(2.80604 0.036042 -4.41387e-18)
(2.80604 0.036775 -4.50364e-18)
(2.80604 0.037509 -4.59353e-18)
(2.80604 0.038243 -4.68342e-18)
(2.80604 0.038976 -4.77318e-18)
(2.80604 0.03971 -4.86307e-18)
(2.80604 0.040444 -4.95296e-18)
(2.80603 0.041024 -0.004935)
(2.80603 0.041472 -0.004736)
(2.80603 0.041919 -0.004534)
(2.80603 0.042363 -0.00433)
(2.80603 0.042802 -0.004124)
(2.80603 0.043236 -0.003917)
(2.80603 0.043666 -0.003709)
(2.80603 0.044091 -0.003501)
(2.80603 0.044511 -0.003293)
(2.80603 0.044926 -0.003084)
(2.80603 0.045336 -0.002877)
(2.80603 0.045739 -0.00267)
(2.80603 0.046138 -0.002464)
(2.80604 0.041178 -5.04285e-18)
(2.80604 0.041911 -5.13262e-18)
(2.80604 0.042645 -5.22251e-18)
(2.80604 0.043379 -5.3124e-18)
(2.80604 0.044112 -5.40216e-18)
(2.80604 0.044846 -5.49205e-18)
(2.80604 0.04558 -5.58194e-18)
(2.80603 0.046916 -0.002059)
(2.80603 0.04767 -0.001662)
(2.80603 0.048399 -0.001278)
(2.80603 0.048757 -0.001089)
(2.80603 0.048942 -0.000991)
(2.80603 0.049135 -0.000887)
(2.80604 0.046313 -5.67171e-18)
(2.80604 0.047047 -5.7616e-18)
(2.80604 0.047781 -5.85149e-18)
(2.80604 0.048515 -5.94137e-18)
(2.80604 0.049339 -0.000776)
(2.80604 0.049559 -0.000656)
(2.80604 0.049796 -0.000524)
(2.80604 0.050055 -0.000379)
(2.80604 0.050369 -0.0002)
(2.80604 0.049248 -6.03114e-18)
(2.80604 0.049982 -6.12103e-18)
(2.80604 0.050716 -6.21092e-18)
)


// edges:

443
(
(0 1)
(2 0)
(3 1)
(1 4)
(4 3)
(5 2)
(6 5)
(4 7)
(7 8)
(9 4)
(4 10)
(10 9)
(11 6)
(12 11)
(13 12)
(14 13)
(15 10)
(10 16)
(16 15)
(17 14)
(18 17)
(19 18)
(20 19)
(21 20)
(22 21)
(23 22)
(24 16)
(16 25)
(25 24)
(25 26)
(26 27)
(28 25)
(25 29)
(29 28)
(30 29)
(29 31)
(31 30)
(32 23)
(33 32)
(34 33)
(35 34)
(36 35)
(37 36)
(38 37)
(39 38)
(40 39)
(41 40)
(42 41)
(43 42)
(44 43)
(45 44)
(31 46)
(47 31)
(31 48)
(48 47)
(49 46)
(50 48)
(48 51)
(51 50)
(52 51)
(51 53)
(53 52)
(54 53)
(53 55)
(55 54)
(56 57)
(58 55)
(55 59)
(59 58)
(59 60)
(61 59)
(59 62)
(62 61)
(61 63)
(64 45)
(65 64)
(66 65)
(67 66)
(68 67)
(69 68)
(70 69)
(71 70)
(72 71)
(73 72)
(74 73)
(75 74)
(76 75)
(77 76)
(78 77)
(79 78)
(80 79)
(81 80)
(82 81)
(83 82)
(84 83)
(85 84)
(86 85)
(87 86)
(88 87)
(89 88)
(90 89)
(91 90)
(62 92)
(93 62)
(62 94)
(94 93)
(95 92)
(96 94)
(94 97)
(97 96)
(98 97)
(97 99)
(99 98)
(99 100)
(100 101)
(102 99)
(99 103)
(103 102)
(102 104)
(105 101)
(106 103)
(103 107)
(107 106)
(107 108)
(109 107)
(107 110)
(110 109)
(109 111)
(110 112)
(113 110)
(110 114)
(114 113)
(115 112)
(116 114)
(114 117)
(117 116)
(117 118)
(119 117)
(117 120)
(120 119)
(119 121)
(122 120)
(120 123)
(123 122)
(124 123)
(123 125)
(125 124)
(126 125)
(125 127)
(127 126)
(128 127)
(127 129)
(129 128)
(130 129)
(129 131)
(131 130)
(132 131)
(131 133)
(133 132)
(134 133)
(133 135)
(135 134)
(135 136)
(136 137)
(138 135)
(135 139)
(139 138)
(138 140)
(140 141)
(139 142)
(142 143)
(143 144)
(144 145)
(145 146)
(146 147)
(147 148)
(148 149)
(149 150)
(150 151)
(151 152)
(152 153)
(153 154)
(154 155)
(155 156)
(156 157)
(157 158)
(158 159)
(159 160)
(160 161)
(161 162)
(162 163)
(163 164)
(164 165)
(165 166)
(166 167)
(167 168)
(168 169)
(169 170)
(170 171)
(171 172)
(172 173)
(173 174)
(174 175)
(175 176)
(176 177)
(177 178)
(178 179)
(179 180)
(180 181)
(181 182)
(182 183)
(183 184)
(184 185)
(185 186)
(186 187)
(187 188)
(188 189)
(189 190)
(190 191)
(191 192)
(192 193)
(193 194)
(194 195)
(195 196)
(196 197)
(197 198)
(199 91)
(200 199)
(201 200)
(202 201)
(203 202)
(204 203)
(205 204)
(206 205)
(207 206)
(208 207)
(209 208)
(210 209)
(211 210)
(212 211)
(213 212)
(214 213)
(215 214)
(216 215)
(217 216)
(218 217)
(219 218)
(220 219)
(221 220)
(222 221)
(223 222)
(224 223)
(225 224)
(226 225)
(227 226)
(228 227)
(229 228)
(230 229)
(231 230)
(232 231)
(233 232)
(234 233)
(235 234)
(236 235)
(237 236)
(238 237)
(239 238)
(240 239)
(241 240)
(242 241)
(243 242)
(244 243)
(245 244)
(246 245)
(247 246)
(248 247)
(249 248)
(250 249)
(251 250)
(252 251)
(253 252)
(254 253)
(255 254)
(256 255)
(257 256)
(258 257)
(259 258)
(260 259)
(261 260)
(262 261)
(263 262)
(264 263)
(265 264)
(266 265)
(267 266)
(268 267)
(269 268)
(270 269)
(271 270)
(272 271)
(273 272)
(274 273)
(275 274)
(276 275)
(277 276)
(278 277)
(279 278)
(280 279)
(281 280)
(282 281)
(283 282)
(284 283)
(285 284)
(286 285)
(287 286)
(288 287)
(289 288)
(290 289)
(291 290)
(292 291)
(293 292)
(294 293)
(295 294)
(296 295)
(297 296)
(298 297)
(299 298)
(300 299)
(301 300)
(302 301)
(303 302)
(304 303)
(305 304)
(306 305)
(307 306)
(198 308)
(308 309)
(309 310)
(310 311)
(311 312)
(312 313)
(313 314)
(314 315)
(315 316)
(316 317)
(317 318)
(318 319)
(319 320)
(320 321)
(321 322)
(322 323)
(323 324)
(324 325)
(325 326)
(326 327)
(327 328)
(328 329)
(329 330)
(330 331)
(331 332)
(332 333)
(333 334)
(334 335)
(335 336)
(337 307)
(338 337)
(339 338)
(340 339)
(341 340)
(342 341)
(343 342)
(344 343)
(345 344)
(346 345)
(347 346)
(348 347)
(349 348)
(350 349)
(351 350)
(352 351)
(353 352)
(354 353)
(355 354)
(356 355)
(357 356)
(358 357)
(359 358)
(360 359)
(361 360)
(362 361)
(336 363)
(363 364)
(364 365)
(365 366)
(366 367)
(367 368)
(368 369)
(369 370)
(370 371)
(371 372)
(372 373)
(373 374)
(374 375)
(375 376)
(377 362)
(378 377)
(379 378)
(380 379)
(381 380)
(382 381)
(383 382)
(384 383)
(385 384)
(386 385)
(387 386)
(388 387)
(389 388)
(376 390)
(390 391)
(391 392)
(392 393)
(393 394)
(394 395)
(395 396)
(397 389)
(398 397)
(399 398)
(400 399)
(401 400)
(402 401)
(396 403)
(403 404)
(404 405)
(405 406)
(407 402)
(408 407)
(409 408)
(410 409)
(411 410)
(406 412)
(412 413)
(414 411)
(413 414)
)

// * * * * * * * * * * * * * * * * * * * * * * * * * * * * * * * * * * * * * //
