/*--------------------------------*- C++ -*----------------------------------*\
|       o          |                                                          |
|    o     o       | HELYX-OS                                                  |
|   o   O   o      | Version: v2.4.0                                           |
|    o     o       | Web:     http://www.engys.com                            |
|       o          |                                                          |
\*---------------------------------------------------------------------------*/
FoamFile
{
    version 2.0;
    format ascii;
    class classe;
    location parent;
    object name;
}


    415
    (
      ( 2.8060150146484375 0.05052800104022026 1.0299999848939478E-4)
      ( 2.8060150146484375 0.05070500075817108 0.0)
      ( 2.8060150146484375 0.05035899952054024 1.9999999494757503E-4)
      ( 2.8060150146484375 0.050523001700639725 1.0099999781232327E-4)
      ( 2.806015968322754 0.05070500075817108 0.0)
      ( 2.8060150146484375 0.05019700154662132 2.9200001154094934E-4)
      ( 2.8060150146484375 0.05004400014877319 3.7900000461377203E-4)
      ( 2.806015968322754 0.05052100121974945 1.0099999781232327E-4)
      ( 2.806015968322754 0.05034400150179863 1.95999993593432E-4)
      ( 2.806015968322754 0.05051099881529808 9.7999996796716E-5)
      ( 2.806015968322754 0.05070599913597107 0.0)
      ( 2.8060150146484375 0.049911998212337494 4.529999860096723E-4)
      ( 2.8060150146484375 0.04978499934077263 5.239999736659229E-4)
      ( 2.8060150146484375 0.04966399818658829 5.920000257901847E-4)
      ( 2.8060150146484375 0.04954800009727478 6.559999892488122E-4)
      ( 2.8060169219970703 0.050505999475717545 9.600000339560211E-5)
      ( 2.8060169219970703 0.05070599913597107 0.0)
      ( 2.8060150146484375 0.0493290014564991 7.75999971665442E-4)
      ( 2.8060150146484375 0.04912500083446503 8.870000019669533E-4)
      ( 2.8060150146484375 0.04893200099468231 9.90999978967011E-4)
      ( 2.8060150146484375 0.048746999353170395 0.0010890000266954303)
      ( 2.806014060974121 0.04856700077652931 0.0011840000515803695)
      ( 2.806014060974121 0.048388998955488205 0.0012779999524354935)
      ( 2.806014060974121 0.04802799969911575 0.0014690000098198652)
      ( 2.8060169219970703 0.050491999834775925 9.200000204145908E-5)
      ( 2.806018114089966 0.05070599913597107 0.0)
      ( 2.806018114089966 0.05048999935388565 9.100000170292333E-5)
      ( 2.806018114089966 0.050280001014471054 1.7699999443721026E-4)
      ( 2.806018114089966 0.05048000067472458 8.800000068731606E-5)
      ( 2.806018114089966 0.050707001239061356 0.0)
      ( 2.8060190677642822 0.05047500133514404 8.600000001024455E-5)
      ( 2.8060190677642822 0.050707001239061356 0.0)
      ( 2.806014060974121 0.04766099900007248 0.001661999966017902)
      ( 2.806014060974121 0.047286998480558395 0.001858999952673912)
      ( 2.806014060974121 0.04690700024366379 0.002059000078588724)
      ( 2.806014060974121 0.046128999441862106 0.002463999902829528)
      ( 2.806014060974121 0.04573100060224533 0.0026700000744313)
      ( 2.806014060974121 0.04532700031995773 0.002877000020816922)
      ( 2.806014060974121 0.0449180006980896 0.003083999967202544)
      ( 2.806014060974121 0.04450400173664093 0.003292999928817153)
      ( 2.806014060974121 0.04408400133252144 0.003501000115647912)
      ( 2.806014060974121 0.04365900158882141 0.0037090000696480274)
      ( 2.8060150146484375 0.04322899878025055 0.003916999790817499)
      ( 2.8060150146484375 0.04279499873518944 0.0041240002028644085)
      ( 2.8060150146484375 0.04235599935054779 0.0043299999088048935)
      ( 2.8060150146484375 0.04191200062632561 0.004534000065177679)
      ( 2.8060190677642822 0.0504629984498024 8.199999865610152E-5)
      ( 2.8060200214385986 0.05046100169420242 8.099999831756577E-5)
      ( 2.8060200214385986 0.050707001239061356 0.0)
      ( 2.8060190677642822 0.050220999866724014 1.5799999528098851E-4)
      ( 2.8060200214385986 0.05044899880886078 7.699999696342275E-5)
      ( 2.8060200214385986 0.05070799961686134 0.0)
      ( 2.806020975112915 0.05044100061058998 7.400000322377309E-5)
      ( 2.806020975112915 0.05070799961686134 0.0)
      ( 2.806020975112915 0.05042700096964836 6.900000153109431E-5)
      ( 2.8060219287872314 0.05070799961686134 0.0)
      ( 2.8060219287872314 0.0504239983856678 6.800000119255856E-5)
      ( 2.8060219287872314 0.05014599859714508 1.320000010309741E-4)
      ( 2.8060219287872314 0.05042000114917755 6.600000051548705E-5)
      ( 2.8060219287872314 0.05070900171995163 0.0)
      ( 2.8060219287872314 0.050411999225616455 6.299999949987978E-5)
      ( 2.806022882461548 0.05040999874472618 6.199999916134402E-5)
      ( 2.806022882461548 0.05070900171995163 0.0)
      ( 2.806022882461548 0.05011700093746185 1.1999999696854502E-4)
      ( 2.8060150146484375 0.041464999318122864 0.004736000206321478)
      ( 2.8060150146484375 0.04101800173521042 0.004935000091791153)
      ( 2.806015968322754 0.04057300090789795 0.0051310001872479916)
      ( 2.806015968322754 0.04013599827885628 0.005320999771356583)
      ( 2.806015968322754 0.039709001779556274 0.005504999775439501)
      ( 2.806015968322754 0.03929600119590759 0.005681999959051609)
      ( 2.806015968322754 0.03890100121498108 0.00585199985653162)
      ( 2.806015968322754 0.03852799907326698 0.006012000143527985)
      ( 2.806015968322754 0.038176000118255615 0.006163999903947115)
      ( 2.806015968322754 0.03783399984240532 0.006310999859124422)
      ( 2.806015968322754 0.0374860018491745 0.006459999829530716)
      ( 2.806015968322754 0.03730500116944313 0.006537000183016062)
      ( 2.806015968322754 0.037115998566150665 0.006616000086069107)
      ( 2.806015968322754 0.03691700100898743 0.006699000019580126)
      ( 2.806015968322754 0.03670699894428253 0.006785000208765268)
      ( 2.806015968322754 0.036483000963926315 0.006876999977976084)
      ( 2.806015968322754 0.03624400123953819 0.00697400001809001)
      ( 2.806015968322754 0.03598799929022789 0.007075999863445759)
      ( 2.806015968322754 0.035711001604795456 0.007185999769717455)
      ( 2.806015968322754 0.03541399911046028 0.007302999962121248)
      ( 2.806015968322754 0.035092998296022415 0.007428999990224838)
      ( 2.806015968322754 0.03474700078368187 0.007563000079244375)
      ( 2.806015968322754 0.034377001225948334 0.007706000003963709)
      ( 2.806015968322754 0.03398500010371208 0.007857000455260277)
      ( 2.806015968322754 0.03357100114226341 0.00801400002092123)
      ( 2.806015968322754 0.0331370010972023 0.008178000338375568)
      ( 2.8060169219970703 0.03268500044941902 0.008346999995410442)
      ( 2.8060169219970703 0.03221600130200386 0.008522000163793564)
      ( 2.806022882461548 0.05039900168776512 5.700000110664405E-5)
      ( 2.8060240745544434 0.05039700120687485 5.6000000768108293E-5)
      ( 2.8060240745544434 0.05070900171995163 0.0)
      ( 2.806022882461548 0.05008900165557861 1.0800000018207356E-4)
      ( 2.8060240745544434 0.05039000138640404 5.2999999752501026E-5)
      ( 2.8060240745544434 0.05071000009775162 0.0)
      ( 2.8060250282287598 0.05038300156593323 4.8999998398358E-5)
      ( 2.8060250282287598 0.05071000009775162 0.0)
      ( 2.8060250282287598 0.05037600174546242 4.600000102072954E-5)
      ( 2.8060250282287598 0.05004600062966347 8.800000068731606E-5)
      ( 2.806025981903076 0.05037499964237213 4.5000000682193786E-5)
      ( 2.806025981903076 0.05071000009775162 0.0)
      ( 2.806025981903076 0.05004400014877319 8.70000003487803E-5)
      ( 2.8060250282287598 0.0497170016169548 1.2700000661425292E-4)
      ( 2.806025981903076 0.05037099868059158 4.3000000005122274E-5)
      ( 2.806025981903076 0.050710998475551605 0.0)
      ( 2.806025981903076 0.05036899819970131 4.099999932805076E-5)
      ( 2.8060269355773926 0.05036799982190132 3.9999998989515007E-5)
      ( 2.8060269355773926 0.050710998475551605 0.0)
      ( 2.8060269355773926 0.0500280000269413 7.79999973019585E-5)
      ( 2.8060269355773926 0.05036500096321106 3.7999998312443495E-5)
      ( 2.806027889251709 0.050363000482320786 3.7000001611886546E-5)
      ( 2.806027889251709 0.050710998475551605 0.0)
      ( 2.8060269355773926 0.05001800134778023 7.200000254670158E-5)
      ( 2.806027889251709 0.05036100000143051 3.600000127335079E-5)
      ( 2.806027889251709 0.05071200057864189 0.0)
      ( 2.806027889251709 0.05035699903964996 3.300000025774352E-5)
      ( 2.8060290813446045 0.05035499855875969 3.199999991920777E-5)
      ( 2.8060290813446045 0.05071200057864189 0.0)
      ( 2.8060290813446045 0.05000099912285805 6.299999949987978E-5)
      ( 2.806030035018921 0.050349000841379166 2.8000000384054147E-5)
      ( 2.806030035018921 0.05071200057864189 0.0)
      ( 2.806030035018921 0.05034700036048889 2.700000004551839E-5)
      ( 2.806030035018921 0.05071299895644188 0.0)
      ( 2.8060309886932373 0.050342999398708344 2.4000000848900527E-5)
      ( 2.8060309886932373 0.05071299895644188 0.0)
      ( 2.8060319423675537 0.050335999578237534 1.8999999156221747E-5)
      ( 2.8060319423675537 0.050714001059532166 0.0)
      ( 2.80603289604187 0.05033000186085701 1.4999999621068127E-5)
      ( 2.80603289604187 0.050714001059532166 0.0)
      ( 2.8060340881347656 0.0503229983150959 9.999999747378752E-6)
      ( 2.8060340881347656 0.05071499943733215 0.0)
      ( 2.806035041809082 0.05031999945640564 7.999999979801942E-6)
      ( 2.806035041809082 0.05071499943733215 0.0)
      ( 2.806035041809082 0.050315000116825104 3.999999989900971E-6)
      ( 2.806035041809082 0.04991399869322777 7.000000096013537E-6)
      ( 2.8060359954833984 0.05031299963593483 3.000000106112566E-6)
      ( 2.8060359954833984 0.05071600154042244 0.0)
      ( 2.8060359954833984 0.049911998212337494 6.000000212225132E-6)
      ( 2.8060359954833984 0.04950999841094017 7.999999979801942E-6)
      ( 2.8060359954833984 0.05030899867415428 0.0)
      ( 2.8060359954833984 0.04990300163626671 0.0)
      ( 2.8060359954833984 0.04949700087308884 0.0)
      ( 2.8060359954833984 0.04909000173211098 0.0)
      ( 2.8060359954833984 0.0487230010330677 0.0)
      ( 2.8060359954833984 0.04835699871182442 0.0)
      ( 2.8060359954833984 0.04799000173807144 0.0)
      ( 2.8060359954833984 0.04762300103902817 0.0)
      ( 2.8060359954833984 0.04688899964094162 0.0)
      ( 2.8060359954833984 0.04615499824285507 0.0)
      ( 2.8060359954833984 0.04542100057005882 0.0)
      ( 2.8060359954833984 0.044686999171972275 0.0)
      ( 2.8060359954833984 0.043953001499176025 0.0)
      ( 2.8060359954833984 0.04321900010108948 0.0)
      ( 2.8060359954833984 0.04175100103020668 0.0)
      ( 2.8060359954833984 0.040282998234033585 0.0)
      ( 2.8060359954833984 0.038816001266241074 0.0)
      ( 2.8060359954833984 0.03734799847006798 0.0)
      ( 2.8060359954833984 0.03441200032830238 0.0)
      ( 2.8060359954833984 0.032944001257419586 0.0)
      ( 2.8060359954833984 0.03147599846124649 0.0)
      ( 2.8060359954833984 0.03000899963080883 0.0)
      ( 2.8060359954833984 0.028541000559926033 0.0)
      ( 2.8060359954833984 0.027072999626398087 0.0)
      ( 2.8060359954833984 0.02560500055551529 0.0)
      ( 2.8060359954833984 0.024136999621987343 0.0)
      ( 2.8060359954833984 0.022669000551104546 0.0)
      ( 2.8060359954833984 0.021201999858021736 0.0)
      ( 2.8060359954833984 0.01973400078713894 0.0)
      ( 2.8060359954833984 0.018265999853610992 0.0)
      ( 2.8060359954833984 0.016798000782728195 0.0)
      ( 2.8060359954833984 0.015329999849200249 0.0)
      ( 2.8060359954833984 0.013861999846994877 0.0)
      ( 2.8060359954833984 0.012395000085234642 0.0)
      ( 2.8060359954833984 0.01092700008302927 0.0)
      ( 2.8060359954833984 0.009459000080823898 0.0)
      ( 2.8060359954833984 0.007991000078618526 0.0)
      ( 2.8060359954833984 0.006523000076413155 0.0)
      ( 2.8060359954833984 0.005055000074207783 0.0)
      ( 2.8060359954833984 0.0035880000796169043 0.0)
      ( 2.8060359954833984 0.0028540000785142183 0.0)
      ( 2.8060359954833984 0.0021200000774115324 0.0)
      ( 2.8060359954833984 0.0013859999598935246 0.0)
      ( 2.8060359954833984 6.520000169984996E-4 0.0)
      ( 2.8060359954833984 -8.199999865610152E-5 0.0)
      ( 2.8060359954833984 -8.159999852068722E-4 0.0)
      ( 2.8060359954833984 -0.001550000044517219 0.0)
      ( 2.8060359954833984 -0.002283999929204583 0.0)
      ( 2.8060359954833984 -0.003017999930307269 0.0)
      ( 2.8060359954833984 -0.003751999931409955 0.0)
      ( 2.8060359954833984 -0.004486000165343285 0.0)
      ( 2.8060359954833984 -0.0052189999260008335 0.0)
      ( 2.8060359954833984 -0.0059529999271035194 0.0)
      ( 2.8060359954833984 -0.006686999928206205 0.0)
      ( 2.8060359954833984 -0.007420999929308891 0.0)
      ( 2.8060359954833984 -0.008155000396072865 0.0)
      ( 2.8060359954833984 -0.008888999931514263 0.0)
      ( 2.8060169219970703 0.03173099830746651 0.008700000122189522)
      ( 2.8060169219970703 0.031231999397277832 0.00888300035148859)
      ( 2.8060169219970703 0.030720999464392662 0.009068000130355358)
      ( 2.8060169219970703 0.03019700013101101 0.009255999699234962)
      ( 2.806018114089966 0.029664000496268272 0.009445000439882278)
      ( 2.806018114089966 0.02912200056016445 0.009634999558329582)
      ( 2.806018114089966 0.02857300080358982 0.009825999848544598)
      ( 2.806018114089966 0.02801699936389923 0.010015999898314476)
      ( 2.806018114089966 0.02745800092816353 0.010204999707639217)
      ( 2.8060190677642822 0.02689499966800213 0.010393000207841396)
      ( 2.8060190677642822 0.026328999549150467 0.010579000227153301)
      ( 2.8060190677642822 0.025760000571608543 0.010762999765574932)
      ( 2.8060190677642822 0.025189999490976334 0.010944999754428864)
      ( 2.8060190677642822 0.024616999551653862 0.011126000434160233)
      ( 2.8060190677642822 0.024041999131441116 0.011304999701678753)
      ( 2.8060200214385986 0.023466000333428383 0.011482000350952148)
      ( 2.8060200214385986 0.022887999191880226 0.011657999828457832)
      ( 2.8060200214385986 0.02230999991297722 0.011831999756395817)
      ( 2.8060200214385986 0.021730000153183937 0.012004000134766102)
      ( 2.8060200214385986 0.021150000393390656 0.01217500027269125)
      ( 2.8060200214385986 0.020570000633597374 0.012342999689280987)
      ( 2.8060200214385986 0.019989000633358955 0.012509999796748161)
      ( 2.8060200214385986 0.019409000873565674 0.012675999663770199)
      ( 2.806020975112915 0.018828999251127243 0.0128389997407794)
      ( 2.806020975112915 0.0182499997317791 0.013000999577343464)
      ( 2.806020975112915 0.017671000212430954 0.013160999864339828)
      ( 2.806020975112915 0.017093999311327934 0.013319999910891056)
      ( 2.806020975112915 0.016517000272870064 0.013476000167429447)
      ( 2.8060219287872314 0.01594099961221218 0.013631000183522701)
      ( 2.8060219287872314 0.01536600012332201 0.013783999718725681)
      ( 2.8060219287872314 0.014791999943554401 0.013935999944806099)
      ( 2.8060219287872314 0.01421900000423193 0.014085999689996243)
      ( 2.806022882461548 0.013646000064909458 0.01423299964517355)
      ( 2.806022882461548 0.013073000125586987 0.014379999600350857)
      ( 2.806022882461548 0.012501999735832214 0.014523999765515327)
      ( 2.806022882461548 0.01193000003695488 0.014666999690234661)
      ( 2.8060240745544434 0.011359999887645245 0.014806999824941158)
      ( 2.8060240745544434 0.010789000429213047 0.014945999719202518)
      ( 2.8060240745544434 0.010219999589025974 0.015084000304341316)
      ( 2.8060240745544434 0.009650000371038914 0.015219000168144703)
      ( 2.8060250282287598 0.009081999771296978 0.015352999791502953)
      ( 2.8060250282287598 0.00851299986243248 0.015483999624848366)
      ( 2.8060250282287598 0.007945000194013119 0.015614000149071217)
      ( 2.806025981903076 0.00737700005993247 0.015742000192403793)
      ( 2.806025981903076 0.006808999925851822 0.015869000926613808)
      ( 2.806025981903076 0.0062409997917711735 0.01599299907684326)
      ( 2.806025981903076 0.005673999898135662 0.016116000711917877)
      ( 2.806025981903076 0.005107000004500151 0.016235999763011932)
      ( 2.806025981903076 0.004538999870419502 0.016355000436306)
      ( 2.8060269355773926 0.003971999976783991 0.016472000628709793)
      ( 2.8060269355773926 0.0034050000831484795 0.016587000340223312)
      ( 2.8060269355773926 0.0028379999566823244 0.016699999570846558)
      ( 2.8060269355773926 0.002271000063046813 0.016812000423669815)
      ( 2.8060269355773926 0.0017040000529959798 0.01692100055515766)
      ( 2.806027889251709 0.0011370000429451466 0.01702900044620037)
      ( 2.806027889251709 5.6900002527982E-4 0.01713399961590767)
      ( 2.806027889251709 9.999999974752427E-7 0.01723800040781498)
      ( 2.806027889251709 -5.660000024363399E-4 0.01713399961590767)
      ( 2.806027889251709 -0.0011340000201016665 0.01702900044620037)
      ( 2.806027889251709 -0.0017010000301524997 0.01692100055515766)
      ( 2.806027889251709 -0.0022690000478178263 0.016812000423669815)
      ( 2.806027889251709 -0.0028359999414533377 0.016699999570846558)
      ( 2.806027889251709 -0.0034030000679194927 0.016587000340223312)
      ( 2.806027889251709 -0.003969999961555004 0.016472000628709793)
      ( 2.806027889251709 -0.0045369998551905155 0.016355000436306)
      ( 2.806027889251709 -0.005104999989271164 0.016235999763011932)
      ( 2.806027889251709 -0.005671999882906675 0.016116000711917877)
      ( 2.8060269355773926 -0.006240000016987324 0.01599299907684326)
      ( 2.8060269355773926 -0.006806999910622835 0.015869000926613808)
      ( 2.8060269355773926 -0.007375000044703484 0.015742000192403793)
      ( 2.8060269355773926 -0.007942999713122845 0.015614000149071217)
      ( 2.8060269355773926 -0.008511999621987343 0.015483999624848366)
      ( 2.8060269355773926 -0.009080000221729279 0.015352999791502953)
      ( 2.8060269355773926 -0.009649000130593777 0.015219000168144703)
      ( 2.8060269355773926 -0.010219000279903412 0.015084000304341316)
      ( 2.8060269355773926 -0.010789000429213047 0.014945999719202518)
      ( 2.8060269355773926 -0.011358999647200108 0.014806999824941158)
      ( 2.806025981903076 -0.01193000003695488 0.014666999690234661)
      ( 2.806025981903076 -0.012501000426709652 0.014523999765515327)
      ( 2.806025981903076 -0.013073000125586987 0.014379999600350857)
      ( 2.806025981903076 -0.013644999824464321 0.01423299964517355)
      ( 2.806025981903076 -0.014217999763786793 0.014085999689996243)
      ( 2.806025981903076 -0.014791999943554401 0.013935999944806099)
      ( 2.806025981903076 -0.01536600012332201 0.013783999718725681)
      ( 2.806025981903076 -0.01594099961221218 0.013631000183522701)
      ( 2.806025981903076 -0.016517000272870064 0.013476000167429447)
      ( 2.806025981903076 -0.017093999311327934 0.013319999910891056)
      ( 2.806025981903076 -0.017671000212430954 0.013160999864339828)
      ( 2.806025981903076 -0.0182499997317791 0.013000999577343464)
      ( 2.806025981903076 -0.018828999251127243 0.0128389997407794)
      ( 2.806025981903076 -0.019409000873565674 0.012675999663770199)
      ( 2.806025981903076 -0.019990000873804092 0.012509999796748161)
      ( 2.806025981903076 -0.020570000633597374 0.012342999689280987)
      ( 2.806025981903076 -0.021151000633835793 0.01217500027269125)
      ( 2.806025981903076 -0.021731000393629074 0.012004000134766102)
      ( 2.806025981903076 -0.022311000153422356 0.011831999756395817)
      ( 2.806025981903076 -0.0228899996727705 0.011657999828457832)
      ( 2.806025981903076 -0.02346700057387352 0.011482000350952148)
      ( 2.806025981903076 -0.02404399961233139 0.011304999701678753)
      ( 2.806025981903076 -0.024617999792099 0.011126000434160233)
      ( 2.806025981903076 -0.02519099973142147 0.010944999754428864)
      ( 2.806025981903076 -0.025761999189853668 0.010762999765574932)
      ( 2.806025981903076 -0.02633100003004074 0.010579000227153301)
      ( 2.806025981903076 -0.026895999908447266 0.010393000207841396)
      ( 2.806025981903076 -0.027459999546408653 0.010204999707639217)
      ( 2.806025981903076 -0.028018999844789505 0.010015999898314476)
      ( 2.806025981903076 -0.028574999421834946 0.009825999848544598)
      ( 2.806025981903076 -0.029123999178409576 0.009634999558329582)
      ( 2.806025981903076 -0.029665999114513397 0.009445000439882278)
      ( 2.8060359954833984 -0.009623000398278236 0.0)
      ( 2.8060359954833984 -0.010356999933719635 0.0)
      ( 2.8060359954833984 -0.011091000400483608 0.0)
      ( 2.8060359954833984 -0.011824999935925007 0.0)
      ( 2.8060359954833984 -0.01255900040268898 0.0)
      ( 2.8060359954833984 -0.013292999938130379 0.0)
      ( 2.8060359954833984 -0.014026000164449215 0.0)
      ( 2.8060359954833984 -0.014759999699890614 0.0)
      ( 2.8060359954833984 -0.015494000166654587 0.0)
      ( 2.8060359954833984 -0.016227999702095985 0.0)
      ( 2.8060359954833984 -0.016961999237537384 0.0)
      ( 2.8060359954833984 -0.017696000635623932 0.0)
      ( 2.8060359954833984 -0.01843000017106533 0.0)
      ( 2.8060359954833984 -0.01916399970650673 0.0)
      ( 2.8060359954833984 -0.019897999241948128 0.0)
      ( 2.8060359954833984 -0.020632000640034676 0.0)
      ( 2.8060359954833984 -0.021366000175476074 0.0)
      ( 2.8060359954833984 -0.022099999710917473 0.0)
      ( 2.8060359954833984 -0.022833000868558884 0.0)
      ( 2.8060359954833984 -0.023567000404000282 0.0)
      ( 2.8060359954833984 -0.02430099993944168 0.0)
      ( 2.8060359954833984 -0.02503499947488308 0.0)
      ( 2.8060359954833984 -0.025769000872969627 0.0)
      ( 2.8060359954833984 -0.026503000408411026 0.0)
      ( 2.8060359954833984 -0.027236999943852425 0.0)
      ( 2.8060359954833984 -0.027970999479293823 0.0)
      ( 2.8060359954833984 -0.028704000636935234 0.0)
      ( 2.8060359954833984 -0.029438000172376633 0.0)
      ( 2.8060359954833984 -0.03017199970781803 0.0)
      ( 2.806025981903076 -0.03020000085234642 0.009255999699234962)
      ( 2.8060250282287598 -0.030722999945282936 0.009068000130355358)
      ( 2.8060250282287598 -0.031235000118613243 0.00888300035148859)
      ( 2.8060250282287598 -0.03173400089144707 0.008700000122189522)
      ( 2.8060250282287598 -0.03221900016069412 0.008522000163793564)
      ( 2.8060250282287598 -0.03268799930810928 0.008346999995410442)
      ( 2.8060250282287598 -0.033574000000953674 0.00801400002092123)
      ( 2.8060250282287598 -0.034380000084638596 0.007706000003963709)
      ( 2.806025981903076 -0.03474999964237213 0.007563000079244375)
      ( 2.806025981903076 -0.035096000880002975 0.007428999990224838)
      ( 2.806025981903076 -0.03541700169444084 0.007302999962121248)
      ( 2.806025981903076 -0.035714998841285706 0.007185999769717455)
      ( 2.806025981903076 -0.03599099814891815 0.007075999863445759)
      ( 2.806025981903076 -0.03624799847602844 0.006972999777644873)
      ( 2.806025981903076 -0.036486998200416565 0.006876999977976084)
      ( 2.806025981903076 -0.03671099990606308 0.006785000208765268)
      ( 2.8060269355773926 -0.03711999952793121 0.006616000086069107)
      ( 2.8060269355773926 -0.037491001188755035 0.006459999829530716)
      ( 2.8060269355773926 -0.037838999181985855 0.006310999859124422)
      ( 2.806027889251709 -0.03818099945783615 0.006163999903947115)
      ( 2.806027889251709 -0.03853299841284752 0.006012000143527985)
      ( 2.806027889251709 -0.038906000554561615 0.00585199985653162)
      ( 2.8060290813446045 -0.03930100053548813 0.005681999959051609)
      ( 2.8060290813446045 -0.03971400111913681 0.005504999775439501)
      ( 2.8060290813446045 -0.0401419997215271 0.005320999771356583)
      ( 2.8060290813446045 -0.04057899862527847 0.0051299999468028545)
      ( 2.8060359954833984 -0.03090599924325943 0.0)
      ( 2.8060359954833984 -0.03163899853825569 0.0)
      ( 2.8060359954833984 -0.03237299993634224 0.0)
      ( 2.8060359954833984 -0.03310700133442879 0.0)
      ( 2.8060359954833984 -0.03384000062942505 0.0)
      ( 2.8060359954833984 -0.0345739983022213 0.0)
      ( 2.8060359954833984 -0.035307999700307846 0.0)
      ( 2.8060359954833984 -0.036042001098394394 0.0)
      ( 2.8060359954833984 -0.036775000393390656 0.0)
      ( 2.8060359954833984 -0.0375090017914772 0.0)
      ( 2.8060359954833984 -0.03824299946427345 0.0)
      ( 2.8060359954833984 -0.038975998759269714 0.0)
      ( 2.8060359954833984 -0.03971000015735626 0.0)
      ( 2.8060359954833984 -0.04044400155544281 0.0)
      ( 2.8060290813446045 -0.04102399945259094 0.004935000091791153)
      ( 2.8060290813446045 -0.041471999138593674 0.004736000206321478)
      ( 2.8060290813446045 -0.04191900044679642 0.004534000065177679)
      ( 2.806030035018921 -0.0423629991710186 0.0043299999088048935)
      ( 2.806030035018921 -0.04280199855566025 0.0041240002028644085)
      ( 2.806030035018921 -0.04323599860072136 0.003916999790817499)
      ( 2.806030035018921 -0.04366600140929222 0.0037090000696480274)
      ( 2.806030035018921 -0.04409100115299225 0.003501000115647912)
      ( 2.806030035018921 -0.04451100155711174 0.003292999928817153)
      ( 2.8060309886932373 -0.0449259988963604 0.003083999967202544)
      ( 2.8060309886932373 -0.04533600062131882 0.002877000020816922)
      ( 2.8060309886932373 -0.04573899880051613 0.0026700000744313)
      ( 2.8060309886932373 -0.04613799974322319 0.002463999902829528)
      ( 2.8060359954833984 -0.04117799922823906 0.0)
      ( 2.8060359954833984 -0.04191099852323532 0.0)
      ( 2.8060359954833984 -0.04264499992132187 0.0)
      ( 2.8060359954833984 -0.04337900131940842 0.0)
      ( 2.8060359954833984 -0.04411200061440468 0.0)
      ( 2.8060359954833984 -0.04484599828720093 0.0)
      ( 2.8060359954833984 -0.045579999685287476 0.0)
      ( 2.8060319423675537 -0.04691600054502487 0.002059000078588724)
      ( 2.8060319423675537 -0.04766999930143356 0.001661999966017902)
      ( 2.80603289604187 -0.048399001359939575 0.0012779999524354935)
      ( 2.8060340881347656 -0.048757001757621765 0.0010890000266954303)
      ( 2.8060340881347656 -0.048941999673843384 9.90999978967011E-4)
      ( 2.8060340881347656 -0.0491349995136261 8.870000019669533E-4)
      ( 2.8060359954833984 -0.04631299898028374 0.0)
      ( 2.8060359954833984 -0.047047000378370285 0.0)
      ( 2.8060359954833984 -0.04778100177645683 0.0)
      ( 2.8060359954833984 -0.04851499944925308 0.0)
      ( 2.806035041809082 -0.04933900013566017 7.75999971665442E-4)
      ( 2.806035041809082 -0.04955900087952614 6.559999892488122E-4)
      ( 2.806035041809082 -0.04979600012302399 5.239999736659229E-4)
      ( 2.8060359954833984 -0.05005500093102455 3.7900000461377203E-4)
      ( 2.8060359954833984 -0.05036899819970131 1.9999999494757503E-4)
      ( 2.8060359954833984 -0.049247998744249344 0.0)
      ( 2.8060359954833984 -0.04998200014233589 0.0)
      ( 2.8060359954833984 -0.05071600154042244 0.0)
    )

    443
    (
      ( 0 1)
      ( 2 0)
      ( 3 1)
      ( 1 4)
      ( 4 3)
      ( 5 2)
      ( 6 5)
      ( 4 7)
      ( 7 8)
      ( 9 4)
      ( 4 10)
      ( 10 9)
      ( 11 6)
      ( 12 11)
      ( 13 12)
      ( 14 13)
      ( 15 10)
      ( 10 16)
      ( 16 15)
      ( 17 14)
      ( 18 17)
      ( 19 18)
      ( 20 19)
      ( 21 20)
      ( 22 21)
      ( 23 22)
      ( 24 16)
      ( 16 25)
      ( 25 24)
      ( 25 26)
      ( 26 27)
      ( 28 25)
      ( 25 29)
      ( 29 28)
      ( 30 29)
      ( 29 31)
      ( 31 30)
      ( 32 23)
      ( 33 32)
      ( 34 33)
      ( 35 34)
      ( 36 35)
      ( 37 36)
      ( 38 37)
      ( 39 38)
      ( 40 39)
      ( 41 40)
      ( 42 41)
      ( 43 42)
      ( 44 43)
      ( 45 44)
      ( 31 46)
      ( 47 31)
      ( 31 48)
      ( 48 47)
      ( 49 46)
      ( 50 48)
      ( 48 51)
      ( 51 50)
      ( 52 51)
      ( 51 53)
      ( 53 52)
      ( 54 53)
      ( 53 55)
      ( 55 54)
      ( 56 57)
      ( 58 55)
      ( 55 59)
      ( 59 58)
      ( 59 60)
      ( 61 59)
      ( 59 62)
      ( 62 61)
      ( 61 63)
      ( 64 45)
      ( 65 64)
      ( 66 65)
      ( 67 66)
      ( 68 67)
      ( 69 68)
      ( 70 69)
      ( 71 70)
      ( 72 71)
      ( 73 72)
      ( 74 73)
      ( 75 74)
      ( 76 75)
      ( 77 76)
      ( 78 77)
      ( 79 78)
      ( 80 79)
      ( 81 80)
      ( 82 81)
      ( 83 82)
      ( 84 83)
      ( 85 84)
      ( 86 85)
      ( 87 86)
      ( 88 87)
      ( 89 88)
      ( 90 89)
      ( 91 90)
      ( 62 92)
      ( 93 62)
      ( 62 94)
      ( 94 93)
      ( 95 92)
      ( 96 94)
      ( 94 97)
      ( 97 96)
      ( 98 97)
      ( 97 99)
      ( 99 98)
      ( 99 100)
      ( 100 101)
      ( 102 99)
      ( 99 103)
      ( 103 102)
      ( 102 104)
      ( 105 101)
      ( 106 103)
      ( 103 107)
      ( 107 106)
      ( 107 108)
      ( 109 107)
      ( 107 110)
      ( 110 109)
      ( 109 111)
      ( 110 112)
      ( 113 110)
      ( 110 114)
      ( 114 113)
      ( 115 112)
      ( 116 114)
      ( 114 117)
      ( 117 116)
      ( 117 118)
      ( 119 117)
      ( 117 120)
      ( 120 119)
      ( 119 121)
      ( 122 120)
      ( 120 123)
      ( 123 122)
      ( 124 123)
      ( 123 125)
      ( 125 124)
      ( 126 125)
      ( 125 127)
      ( 127 126)
      ( 128 127)
      ( 127 129)
      ( 129 128)
      ( 130 129)
      ( 129 131)
      ( 131 130)
      ( 132 131)
      ( 131 133)
      ( 133 132)
      ( 134 133)
      ( 133 135)
      ( 135 134)
      ( 135 136)
      ( 136 137)
      ( 138 135)
      ( 135 139)
      ( 139 138)
      ( 138 140)
      ( 140 141)
      ( 139 142)
      ( 142 143)
      ( 143 144)
      ( 144 145)
      ( 145 146)
      ( 146 147)
      ( 147 148)
      ( 148 149)
      ( 149 150)
      ( 150 151)
      ( 151 152)
      ( 152 153)
      ( 153 154)
      ( 154 155)
      ( 155 156)
      ( 156 157)
      ( 157 158)