/*--------------------------------*- C++ -*----------------------------------*\
|       o          |                                                          |
|    o     o       | HELYX-OS                                                  |
|   o   O   o      | Version: v2.4.0                                           |
|    o     o       | Web:     http://www.engys.com                            |
|       o          |                                                          |
\*---------------------------------------------------------------------------*/
FoamFile
{
    version 2.0;
    format ascii;
    class classe;
    location parent;
    object name;
}


    1216
    (
      ( 2.6969470977783203 -7.000000096013537E-6 0.1224140003323555)
      ( 2.6966769695281982 -7.000000096013537E-6 0.12235300242900848)
      ( 2.6966469287872314 -4.999999873689376E-6 0.1224140003323555)
      ( 2.696247100830078 -1.9999999949504854E-6 0.1224140003323555)
      ( 2.6964058876037598 -7.000000096013537E-6 0.12228900194168091)
      ( 2.6959469318389893 9.999999974752427E-7 0.1224140003323555)
      ( 2.6956770420074463 9.999999974752427E-7 0.12235300242900848)
      ( 2.695405960083008 9.999999974752427E-7 0.12228900194168091)
      ( 2.696135997772217 -7.000000096013537E-6 0.12222299724817276)
      ( 2.695136070251465 9.999999974752427E-7 0.12222299724817276)
      ( 2.695866107940674 -7.000000096013537E-6 0.12215500324964523)
      ( 2.6955959796905518 -7.000000096013537E-6 0.12208499759435654)
      ( 2.6948659420013428 9.999999974752427E-7 0.12215500324964523)
      ( 2.6945960521698 9.999999974752427E-7 0.12208499759435654)
      ( 2.695327043533325 -7.000000096013537E-6 0.12201199680566788)
      ( 2.6943271160125732 0.0 0.12201199680566788)
      ( 2.6950581073760986 -7.000000096013537E-6 0.12193699926137924)
      ( 2.6947898864746094 -7.000000096013537E-6 0.12185999751091003)
      ( 2.6940579414367676 0.0 0.12193699926137924)
      ( 2.6937899589538574 0.0 0.12185999751091003)
      ( 2.6945199966430664 -7.000000096013537E-6 0.12178000062704086)
      ( 2.6935200691223145 0.0 0.12178000062704086)
      ( 2.6942501068115234 -7.000000096013537E-6 0.12169799953699112)
      ( 2.6939830780029297 -7.000000096013537E-6 0.1216140016913414)
      ( 2.6932499408721924 0.0 0.12169799953699112)
      ( 2.6929829120635986 0.0 0.1216140016913414)
      ( 2.6937170028686523 -7.000000096013537E-6 0.12152799963951111)
      ( 2.6934518814086914 -7.000000096013537E-6 0.12144099920988083)
      ( 2.6927170753479004 0.0 0.12152799963951111)
      ( 2.6924519538879395 0.0 0.12144099920988083)
      ( 2.6931889057159424 -7.000000096013537E-6 0.12135100364685059)
      ( 2.6921889781951904 0.0 0.12135100364685059)
      ( 2.6929268836975098 -7.000000096013537E-6 0.12126000225543976)
      ( 2.692667007446289 -7.000000096013537E-6 0.12116599828004837)
      ( 2.691926956176758 0.0 0.12126000225543976)
      ( 2.6916658878326416 0.0 0.12116599828004837)
      ( 2.692405939102173 -7.000000096013537E-6 0.121069997549057)
      ( 2.691406011581421 0.0 0.121069997549057)
      ( 2.692146062850952 -7.000000096013537E-6 0.12097200006246567)
      ( 2.691884994506836 -7.000000096013537E-6 0.12087099999189377)
      ( 2.691145896911621 0.0 0.12097200006246567)
      ( 2.6908860206604004 0.0 0.12087099999189377)
      ( 2.6916251182556152 -7.000000096013537E-6 0.12076900154352188)
      ( 2.690624952316284 0.0 0.12076900154352188)
      ( 2.691364049911499 -7.000000096013537E-6 0.12066300213336945)
      ( 2.6911020278930664 -7.000000096013537E-6 0.12055499851703644)
      ( 2.690363883972168 0.0 0.12066300213336945)
      ( 2.6901021003723145 0.0 0.12055499851703644)
      ( 2.690840005874634 -7.000000096013537E-6 0.12044499814510345)
      ( 2.690577983856201 -7.000000096013537E-6 0.12033200263977051)
      ( 2.689840078353882 0.0 0.12044499814510345)
      ( 2.689578056335449 0.0 0.12033200263977051)
      ( 2.690311908721924 -7.000000096013537E-6 0.12021499872207642)
      ( 2.689311981201172 0.0 0.12021499872207642)
      ( 2.690047025680542 -7.000000096013537E-6 0.12009599804878235)
      ( 2.6897830963134766 -7.000000096013537E-6 0.11997400224208832)
      ( 2.68904709815979 0.0 0.12009599804878235)
      ( 2.6887829303741455 0.0 0.11997400224208832)
      ( 2.689518928527832 -7.000000096013537E-6 0.1198510006070137)
      ( 2.68851900100708 0.0 0.1198510006070137)
      ( 2.689255952835083 -7.000000096013537E-6 0.11972399801015854)
      ( 2.6889939308166504 -7.000000096013537E-6 0.11959599703550339)
      ( 2.688256025314331 0.0 0.11972399801015854)
      ( 2.6879940032958984 0.0 0.11959599703550339)
      ( 2.6887319087982178 -7.000000096013537E-6 0.11946500092744827)
      ( 2.687731981277466 0.0 0.11946500092744827)
      ( 2.688472032546997 -7.999999979801942E-6 0.1193310022354126)
      ( 2.6882119178771973 -7.999999979801942E-6 0.11919599771499634)
      ( 2.6874709129333496 0.0 0.1193310022354126)
      ( 2.6872119903564453 0.0 0.11919599771499634)
      ( 2.687952995300293 -7.999999979801942E-6 0.11905699968338013)
      ( 2.6876959800720215 -7.999999979801942E-6 0.11891700327396393)
      ( 2.686953067779541 0.0 0.11905699968338013)
      ( 2.6866960525512695 0.0 0.11891700327396393)
      ( 2.6874399185180664 -7.999999979801942E-6 0.11877399682998657)
      ( 2.6864399909973145 0.0 0.11877399682998657)
      ( 2.687185049057007 -7.999999979801942E-6 0.11862900108098984)
      ( 2.68693208694458 -7.999999979801942E-6 0.11848200112581253)
      ( 2.686184883117676 0.0 0.11862900108098984)
      ( 2.685931921005249 0.0 0.11848200112581253)
      ( 2.6866800785064697 -7.999999979801942E-6 0.11833199858665466)
      ( 2.6856799125671387 0.0 0.11833199858665466)
      ( 2.686429977416992 -7.999999979801942E-6 0.11817999929189682)
      ( 2.6861801147460938 -7.999999979801942E-6 0.11802499741315842)
      ( 2.6854300498962402 0.0 0.11817999929189682)
      ( 2.6851799488067627 0.0 0.11802499741315842)
      ( 2.6859309673309326 -7.999999979801942E-6 0.11786700040102005)
      ( 2.6849310398101807 0.0 0.11786700040102005)
      ( 2.6856839656829834 -7.999999979801942E-6 0.11770699918270111)
      ( 2.685439109802246 -7.999999979801942E-6 0.1175450012087822)
      ( 2.6846840381622314 0.0 0.11770699918270111)
      ( 2.684438943862915 -9.999999974752427E-7 0.1175450012087822)
      ( 2.685194969177246 -7.999999979801942E-6 0.11738000065088272)
      ( 2.684952974319458 -7.999999979801942E-6 0.11721300333738327)
      ( 2.6841959953308105 -9.999999974752427E-7 0.11738000065088272)
      ( 2.683953046798706 -9.999999974752427E-7 0.11721300333738327)
      ( 2.6847128868103027 -7.999999979801942E-6 0.11704400181770325)
      ( 2.683712959289551 -9.999999974752427E-7 0.11704400181770325)
      ( 2.684473991394043 -7.999999979801942E-6 0.11687199771404266)
      ( 2.6842360496520996 -7.999999979801942E-6 0.11669900268316269)
      ( 2.683474063873291 -9.999999974752427E-7 0.11687199771404266)
      ( 2.6832358837127686 -9.999999974752427E-7 0.11669900268316269)
      ( 2.684000015258789 -7.999999979801942E-6 0.11652299761772156)
      ( 2.683000087738037 -9.999999974752427E-7 0.11652299761772156)
      ( 2.6837658882141113 -7.999999979801942E-6 0.11634500324726105)
      ( 2.683532953262329 -7.999999979801942E-6 0.11616499722003937)
      ( 2.6827659606933594 -9.999999974752427E-7 0.11634500324726105)
      ( 2.682533025741577 -9.999999974752427E-7 0.11616499722003937)
      ( 2.6833019256591797 -7.999999979801942E-6 0.11598300188779831)
      ( 2.6823019981384277 -9.999999974752427E-7 0.11598300188779831)
      ( 2.683073043823242 -7.999999979801942E-6 0.1157979965209961)
      ( 2.682845115661621 -7.999999979801942E-6 0.11561200022697449)
      ( 2.6820731163024902 -9.999999974752427E-7 0.1157979965209961)
      ( 2.68184494972229 -9.999999974752427E-7 0.11561200022697449)
      ( 2.682619094848633 -7.999999979801942E-6 0.11542399972677231)
      ( 2.682451009750366 -7.999999979801942E-6 0.11528100073337555)
      ( 2.6816189289093018 -9.999999974752427E-7 0.11542399972677231)
      ( 2.6814510822296143 -9.999999974752427E-7 0.11528100073337555)
      ( 2.682284116744995 -7.999999979801942E-6 0.11513800173997879)
      ( 2.6812829971313477 -9.999999974752427E-7 0.11513800173997879)
      ( 2.682116985321045 -7.999999979801942E-6 0.11499299854040146)
      ( 2.6819519996643066 -7.999999979801942E-6 0.11484699696302414)
      ( 2.681117057800293 -9.999999974752427E-7 0.11499299854040146)
      ( 2.6809520721435547 -9.999999974752427E-7 0.11484699696302414)
      ( 2.6817870140075684 -7.999999979801942E-6 0.11469999700784683)
      ( 2.6807870864868164 -9.999999974752427E-7 0.11469999700784683)
      ( 2.681623935699463 -7.999999979801942E-6 0.11455100029706955)
      ( 2.6814610958099365 -7.999999979801942E-6 0.11440200358629227)
      ( 2.680624008178711 -9.999999974752427E-7 0.11455100029706955)
      ( 2.6804609298706055 -9.999999974752427E-7 0.11440200358629227)
      ( 2.6812989711761475 -7.999999979801942E-6 0.11425100266933441)
      ( 2.6802990436553955 -9.999999974752427E-7 0.11425100266933441)
      ( 2.681138038635254 -7.999999979801942E-6 0.11409900337457657)
      ( 2.680979013442993 -7.999999979801942E-6 0.11394599825143814)
      ( 2.680138111114502 -9.999999974752427E-7 0.11409900337457657)
      ( 2.6799778938293457 -9.999999974752427E-7 0.11394599825143814)
      ( 2.6808199882507324 -9.000000318337698E-6 0.11379200220108032)
      ( 2.6806609630584717 -9.000000318337698E-6 0.11363600194454193)
      ( 2.6798200607299805 -9.999999974752427E-7 0.11379200220108032)
      ( 2.679661989212036 -9.999999974752427E-7 0.11363600194454193)
      ( 2.6805050373077393 -9.000000318337698E-6 0.11348000168800354)
      ( 2.6795051097869873 -9.999999974752427E-7 0.11348000168800354)
      ( 2.6803479194641113 -9.000000318337698E-6 0.11332199722528458)
      ( 2.6801929473876953 -9.000000318337698E-6 0.11316400021314621)
      ( 2.6793479919433594 -9.999999974752427E-7 0.11332199722528458)
      ( 2.6791930198669434 -9.999999974752427E-7 0.11316400021314621)
      ( 2.6800389289855957 -9.000000318337698E-6 0.11300399899482727)
      ( 2.6790390014648438 -9.999999974752427E-7 0.11300399899482727)
      ( 2.679887056350708 -9.000000318337698E-6 0.11284299939870834)
      ( 2.679734945297241 -9.000000318337698E-6 0.11268199980258942)
      ( 2.678886890411377 -9.999999974752427E-7 0.11284299939870834)
      ( 2.6787350177764893 -9.999999974752427E-7 0.11268199980258942)
      ( 2.67958402633667 -9.000000318337698E-6 0.11251900345087051)
      ( 2.678584098815918 -9.999999974752427E-7 0.11251900345087051)
      ( 2.679434061050415 -9.000000318337698E-6 0.11235599964857101)
      ( 2.679286003112793 -9.000000318337698E-6 0.11219099909067154)
      ( 2.678433895111084 -9.999999974752427E-7 0.11235599964857101)
      ( 2.678286075592041 -9.999999974752427E-7 0.11219099909067154)
      ( 2.679137945175171 -9.000000318337698E-6 0.11202599853277206)
      ( 2.6789920330047607 -9.000000318337698E-6 0.1118599995970726)
      ( 2.678138017654419 -9.999999974752427E-7 0.11202599853277206)
      ( 2.677992105484009 -9.999999974752427E-7 0.1118599995970726)
      ( 2.678847074508667 -9.000000318337698E-6 0.11169300228357315)
      ( 2.677846908569336 -1.9999999949504854E-6 0.11169300228357315)
      ( 2.6787030696868896 -9.000000318337698E-6 0.11152499914169312)
      ( 2.6785600185394287 -9.000000318337698E-6 0.11135700345039368)
      ( 2.6777029037475586 -1.9999999949504854E-6 0.11152499914169312)
      ( 2.6775600910186768 -1.9999999949504854E-6 0.11135700345039368)
      ( 2.6784191131591797 -9.000000318337698E-6 0.11118700355291367)
      ( 2.6774189472198486 -1.9999999949504854E-6 0.11118700355291367)
      ( 2.6782779693603516 -9.000000318337698E-6 0.11101700365543365)
      ( 2.6781389713287354 -9.000000318337698E-6 0.11084599792957306)
      ( 2.6772780418395996 -1.9999999949504854E-6 0.11101700365543365)
      ( 2.6771390438079834 -1.9999999949504854E-6 0.11084599792957306)
      ( 2.6780009269714355 -9.000000318337698E-6 0.11067400127649307)
      ( 2.6770009994506836 -1.9999999949504854E-6 0.11067400127649307)
      ( 2.6778640747070312 -9.000000318337698E-6 0.11050199717283249)
      ( 2.6777288913726807 -9.000000318337698E-6 0.11032799631357193)
      ( 2.6774280071258545 -7.000000096013537E-6 0.11032799631357193)
      ( 2.6770288944244385 -3.999999989900971E-6 0.11032799631357193)
      ( 2.6768639087677 -1.9999999949504854E-6 0.11050199717283249)
      ( 2.6767280101776123 -1.9999999949504854E-6 0.11032799631357193)
      ( 2.6767311096191406 -1.9999999949504854E-6 0.11032799631357193)
      ( 2.6777310371398926 -7.000000096013537E-6 0.11032699793577194)
      ( 2.67753005027771 -7.000000096013537E-6 0.1100659966468811)
      ( 2.6777288913726807 -7.000000096013537E-6 0.11032699793577194)
      ( 2.677431106567383 -4.999999873689376E-6 0.11032699793577194)
      ( 2.6770310401916504 -1.9999999949504854E-6 0.11032699793577194)
      ( 2.677333116531372 -7.000000096013537E-6 0.10980600118637085)
      ( 2.6767311096191406 0.0 0.11032699793577194)
      ( 2.676529884338379 0.0 0.1100659966468811)
      ( 2.676332950592041 0.0 0.10980600118637085)
      ( 2.677203893661499 -7.000000096013537E-6 0.10963200032711029)
      ( 2.677077054977417 -7.000000096013537E-6 0.10945899784564972)
      ( 2.676203966140747 0.0 0.10963200032711029)
      ( 2.676076889038086 0.0 0.10945899784564972)
      ( 2.6769509315490723 -7.000000096013537E-6 0.10928499698638916)
      ( 2.6768269538879395 -7.000000096013537E-6 0.10911200195550919)
      ( 2.6759510040283203 0.0 0.10928499698638916)
      ( 2.6758270263671875 0.0 0.10911200195550919)
      ( 2.6766440868377686 -7.999999979801942E-6 0.10885100066661835)
      ( 2.676464080810547 -7.999999979801942E-6 0.10858999937772751)
      ( 2.676163911819458 -4.999999873689376E-6 0.10858999937772751)
      ( 2.6757640838623047 -1.9999999949504854E-6 0.10858999937772751)
      ( 2.6756439208984375 0.0 0.10885100066661835)
      ( 2.675463914871216 0.0 0.10858999937772751)
      ( 2.6764469146728516 -7.999999979801942E-6 0.10856500267982483)
      ( 2.676223039627075 -7.999999979801942E-6 0.10822899639606476)
      ( 2.676146984100342 -4.999999873689376E-6 0.10856500267982483)
      ( 2.6757469177246094 -1.9999999949504854E-6 0.10856500267982483)
      ( 2.6760029792785645 -7.999999979801942E-6 0.1078919991850853)
      ( 2.6754469871520996 0.0 0.10856500267982483)
      ( 2.6752219200134277 0.0 0.10822899639606476)
      ( 2.675002098083496 0.0 0.1078919991850853)
      ( 2.6757869720458984 -7.999999979801942E-6 0.10755400359630585)
      ( 2.675575017929077 -7.999999979801942E-6 0.10721199959516525)
      ( 2.6747870445251465 0.0 0.10755400359630585)
      ( 2.674575090408325 0.0 0.10721199959516525)
      ( 2.6753671169281006 -7.999999979801942E-6 0.10686899721622467)
      ( 2.6751630306243896 -7.999999979801942E-6 0.10652299970388412)
      ( 2.6743669509887695 0.0 0.10686899721622467)
      ( 2.6741631031036377 0.0 0.10652299970388412)
      ( 2.674962043762207 -7.999999979801942E-6 0.10617399960756302)
      ( 2.6747639179229736 -7.999999979801942E-6 0.10582300275564194)
      ( 2.673962116241455 0.0 0.10617399960756302)
      ( 2.6737639904022217 0.0 0.10582300275564194)
      ( 2.674570083618164 -7.999999979801942E-6 0.1054690033197403)
      ( 2.6743791103363037 -7.999999979801942E-6 0.10511299967765808)
      ( 2.673569917678833 0.0 0.1054690033197403)
      ( 2.6733789443969727 0.0 0.10511299967765808)
      ( 2.6741909980773926 -7.999999979801942E-6 0.1047540009021759)
      ( 2.674006938934326 -7.999999979801942E-6 0.10439299792051315)
      ( 2.6731910705566406 0.0 0.1047540009021759)
      ( 2.673007011413574 0.0 0.10439299792051315)
      ( 2.673825979232788 -7.000000096013537E-6 0.10402999818325043)
      ( 2.6736490726470947 -7.000000096013537E-6 0.10366600006818771)
      ( 2.672826051712036 0.0 0.10402999818325043)
      ( 2.6726489067077637 0.0 0.10366600006818771)
      ( 2.673475980758667 -7.000000096013537E-6 0.10329899936914444)
      ( 2.6733078956604004 -7.000000096013537E-6 0.10293199867010117)
      ( 2.6724770069122314 0.0 0.10329899936914444)
      ( 2.6723079681396484 0.0 0.10293199867010117)
      ( 2.6731929779052734 -7.000000096013537E-6 0.10267599672079086)
      ( 2.6730809211730957 -7.000000096013537E-6 0.10242000222206116)
      ( 2.6721930503845215 0.0 0.10267599672079086)
      ( 2.6720809936523438 0.0 0.10242000222206116)
      ( 2.67297101020813 -7.000000096013537E-6 0.10216300189495087)
      ( 2.672863006591797 -7.000000096013537E-6 0.10190600156784058)
      ( 2.671971082687378 0.0 0.10216300189495087)
      ( 2.671863079071045 0.0 0.10190600156784058)
      ( 2.6727569103240967 -7.000000096013537E-6 0.10164900124073029)
      ( 2.672653913497925 -7.000000096013537E-6 0.10138999670743942)
      ( 2.6717569828033447 0.0 0.10164900124073029)
      ( 2.671653985977173 0.0 0.10138999670743942)
      ( 2.6725521087646484 -7.000000096013537E-6 0.10113199800252914)
      ( 2.672451972961426 -7.000000096013537E-6 0.10087200254201889)
      ( 2.6715519428253174 0.0 0.10113199800252914)
      ( 2.671452045440674 0.0 0.10087200254201889)
      ( 2.672353982925415 -7.000000096013537E-6 0.10061199963092804)
      ( 2.672257900238037 -7.000000096013537E-6 0.10035199671983719)
      ( 2.671354055404663 0.0 0.10061199963092804)
      ( 2.671257972717285 0.0 0.10035199671983719)
      ( 2.672163963317871 -7.000000096013537E-6 0.10009100288152695)
      ( 2.6720709800720215 -6.000000212225132E-6 0.09982900321483612)
      ( 2.671164035797119 9.999999974752427E-7 0.10009100288152695)
      ( 2.6710710525512695 9.999999974752427E-7 0.09982900321483612)
      ( 2.6719810962677 -6.000000212225132E-6 0.0995670035481453)
      ( 2.671891927719116 -4.999999873689376E-6 0.09930399805307388)
      ( 2.670980930328369 1.9999999949504854E-6 0.0995670035481453)
      ( 2.6708920001983643 1.9999999949504854E-6 0.09930399805307388)
      ( 2.671804904937744 -3.999999989900971E-6 0.09904100000858307)
      ( 2.671720027923584 -3.999999989900971E-6 0.09877700358629227)
      ( 2.670804977416992 3.000000106112566E-6 0.09904100000858307)
      ( 2.670720100402832 3.999999989900971E-6 0.09877700358629227)
      ( 2.6716439723968506 -3.000000106112566E-6 0.09853299707174301)
      ( 2.671567916870117 -1.9999999949504854E-6 0.09828399866819382)
      ( 2.6706440448760986 3.999999989900971E-6 0.09853299707174301)
      ( 2.6705679893493652 4.999999873689376E-6 0.09828399866819382)
      ( 2.6714909076690674 -1.9999999949504854E-6 0.09802599996328354)
      ( 2.6714138984680176 -1.9999999949504854E-6 0.09775800257921219)
      ( 2.6704909801483154 4.999999873689376E-6 0.09802599996328354)
      ( 2.6704139709472656 6.000000212225132E-6 0.09775800257921219)
      ( 2.6713359355926514 -9.999999974752427E-7 0.09747999906539917)
      ( 2.671257972717285 -9.999999974752427E-7 0.09719400107860565)
      ( 2.6703360080718994 6.000000212225132E-6 0.09747999906539917)
      ( 2.670258045196533 6.000000212225132E-6 0.09719400107860565)
      ( 2.671180009841919 -9.999999974752427E-7 0.09690000116825104)
      ( 2.671103000640869 -9.999999974752427E-7 0.09660399705171585)
      ( 2.670180082321167 6.000000212225132E-6 0.09690000116825104)
      ( 2.670103073120117 7.000000096013537E-6 0.09660399705171585)
      ( 2.671027898788452 -9.999999974752427E-7 0.09630600363016129)
      ( 2.670954942703247 -9.999999974752427E-7 0.09601099789142609)
      ( 2.6700279712677 7.000000096013537E-6 0.09630600363016129)
      ( 2.669955015182495 7.000000096013537E-6 0.09601099789142609)
      ( 2.6708860397338867 -9.999999974752427E-7 0.09572199732065201)
      ( 2.6708199977874756 -9.999999974752427E-7 0.09544000029563904)
      ( 2.6698861122131348 7.000000096013537E-6 0.09572199732065201)
      ( 2.6698200702667236 7.000000096013537E-6 0.09544000029563904)
      ( 2.6707589626312256 -9.999999974752427E-7 0.09516800194978714)
      ( 2.6707019805908203 0.0 0.09490399807691574)
      ( 2.6697590351104736 7.000000096013537E-6 0.09516800194978714)
      ( 2.669701099395752 7.000000096013537E-6 0.09490399807691574)
      ( 2.6706480979919434 0.0 0.09464900195598602)
      ( 2.6705970764160156 0.0 0.09439899772405624)
      ( 2.6696479320526123 7.000000096013537E-6 0.09464900195598602)
      ( 2.6695969104766846 7.000000096013537E-6 0.09439899772405624)
      ( 2.6705360412597656 -9.999999974752427E-7 0.09408300369977951)
      ( 2.670478105545044 -9.999999974752427E-7 0.0937729999423027)
      ( 2.6695361137390137 7.000000096013537E-6 0.09408300369977951)
      ( 2.669477939605713 7.000000096013537E-6 0.0937729999423027)
      ( 2.670423984527588 -9.999999974752427E-7 0.09347400069236755)
      ( 2.6703739166259766 -9.999999974752427E-7 0.09318699687719345)
      ( 2.669424057006836 6.000000212225132E-6 0.09347400069236755)
      ( 2.6693739891052246 6.000000212225132E-6 0.09318699687719345)
      ( 2.67032790184021 -1.9999999949504854E-6 0.09291200339794159)
      ( 2.670285940170288 -1.9999999949504854E-6 0.0926470011472702)
      ( 2.669327974319458 6.000000212225132E-6 0.09291200339794159)
      ( 2.669286012649536 4.999999873689376E-6 0.0926470011472702)
      ( 2.6702470779418945 -3.000000106112566E-6 0.09239000082015991)
      ( 2.67021107673645 -3.000000106112566E-6 0.09213600307703018)
      ( 2.6692469120025635 3.999999989900971E-6 0.09239000082015991)
      ( 2.669210910797119 3.999999989900971E-6 0.09213600307703018)
      ( 2.6701769828796387 -3.999999989900971E-6 0.09188300371170044)
      ( 2.670145034790039 -4.999999873689376E-6 0.09162600338459015)
      ( 2.6691770553588867 3.000000106112566E-6 0.09188300371170044)
      ( 2.669145107269287 3.000000106112566E-6 0.09162600338459015)
      ( 2.670114040374756 -4.999999873689376E-6 0.09136199951171875)
      ( 2.670083999633789 -4.999999873689376E-6 0.09108699858188629)
      ( 2.669114112854004 1.9999999949504854E-6 0.09136199951171875)
      ( 2.669084072113037 1.9999999949504854E-6 0.09108699858188629)
      ( 2.6700539588928223 -4.999999873689376E-6 0.09080100059509277)
      ( 2.670025110244751 -4.999999873689376E-6 0.09050299972295761)
      ( 2.6690540313720703 1.9999999949504854E-6 0.09080100059509277)
      ( 2.66902494430542 1.9999999949504854E-6 0.09050299972295761)
      ( 2.669996976852417 -4.999999873689376E-6 0.09019400179386139)
      ( 2.6699700355529785 -4.999999873689376E-6 0.08987800031900406)
      ( 2.668997049331665 1.9999999949504854E-6 0.09019400179386139)
      ( 2.6689701080322266 1.9999999949504854E-6 0.08987800031900406)
      ( 2.669948101043701 -4.999999873689376E-6 0.08959600329399109)
      ( 2.6699280738830566 -4.999999873689376E-6 0.08931300044059753)
      ( 2.66894793510437 1.9999999949504854E-6 0.08959600329399109)
      ( 2.6689279079437256 1.9999999949504854E-6 0.08931300044059753)
      ( 2.669909954071045 -4.999999873689376E-6 0.08903100341558456)
      ( 2.669893980026245 -4.999999873689376E-6 0.088748998939991)
      ( 2.668910026550293 1.9999999949504854E-6 0.08903100341558456)
      ( 2.668894052505493 1.9999999949504854E-6 0.088748998939991)
      ( 2.669879913330078 -4.999999873689376E-6 0.08846600353717804)
      ( 2.669867992401123 -4.999999873689376E-6 0.08818399906158447)
      ( 2.668879985809326 1.9999999949504854E-6 0.08846600353717804)
      ( 2.668868064880371 1.9999999949504854E-6 0.08818399906158447)
      ( 2.669857978820801 -6.000000212225132E-6 0.0879020020365715)
      ( 2.6698501110076904 -6.000000212225132E-6 0.08761999756097794)
      ( 2.668858051300049 1.9999999949504854E-6 0.0879020020365715)
      ( 2.6688499450683594 1.9999999949504854E-6 0.08761999756097794)
      ( 2.6698451042175293 -6.000000212225132E-6 0.08733700215816498)
      ( 2.6698410511016846 -6.000000212225132E-6 0.08705399930477142)
      ( 2.6688449382781982 1.9999999949504854E-6 0.08733700215816498)
      ( 2.6688408851623535 1.9999999949504854E-6 0.08705399930477142)
      ( 2.6698389053344727 -6.000000212225132E-6 0.08677099645137787)
      ( 2.669840097427368 -6.000000212225132E-6 0.08648700267076492)
      ( 2.6688389778137207 1.9999999949504854E-6 0.08677099645137787)
      ( 2.668839931488037 1.9999999949504854E-6 0.08648700267076492)
      ( 2.669842004776001 -6.000000212225132E-6 0.08620399981737137)
      ( 2.669847011566162 -6.000000212225132E-6 0.08591999858617783)
      ( 2.6688430309295654 9.999999974752427E-7 0.08620399981737137)
      ( 2.66884708404541 9.999999974752427E-7 0.08591999858617783)
      ( 2.669853925704956 -6.000000212225132E-6 0.08563599735498428)
      ( 2.669862985610962 -6.000000212225132E-6 0.08535300195217133)
      ( 2.668853998184204 9.999999974752427E-7 0.08563599735498428)
      ( 2.66886305809021 9.999999974752427E-7 0.08535300195217133)
      ( 2.6698739528656006 -6.000000212225132E-6 0.08506300300359726)
      ( 2.669887065887451 -6.000000212225132E-6 0.08477800339460373)
      ( 2.6688740253448486 9.999999974752427E-7 0.08506300300359726)
      ( 2.66888689994812 9.999999974752427E-7 0.08477800339460373)
      ( 2.6699020862579346 -6.000000212225132E-6 0.08449800312519073)
      ( 2.669919013977051 -6.000000212225132E-6 0.08422199636697769)
      ( 2.6689019203186035 9.999999974752427E-7 0.08449800312519073)
      ( 2.668919086456299 9.999999974752427E-7 0.08422199636697769)
      ( 2.669938087463379 -6.000000212225132E-6 0.08394800126552582)
      ( 2.66995906829834 -6.000000212225132E-6 0.08367399871349335)
      ( 2.668937921524048 9.999999974752427E-7 0.08394800126552582)
      ( 2.668958902359009 9.999999974752427E-7 0.08367399871349335)
      ( 2.669981002807617 -6.000000212225132E-6 0.0833979994058609)
      ( 2.6700069904327393 -6.000000212225132E-6 0.08312100172042847)
      ( 2.6689820289611816 9.999999974752427E-7 0.0833979994058609)
      ( 2.6690070629119873 9.999999974752427E-7 0.08312100172042847)
      ( 2.6700339317321777 -6.000000212225132E-6 0.082846999168396)
      ( 2.670063018798828 -6.000000212225132E-6 0.08257400244474411)
      ( 2.669034004211426 9.999999974752427E-7 0.082846999168396)
      ( 2.669063091278076 9.999999974752427E-7 0.08257400244474411)
      ( 2.6700940132141113 -6.000000212225132E-6 0.08229999989271164)
      ( 2.670125961303711 -6.000000212225132E-6 0.08202700316905975)
      ( 2.669092893600464 9.999999974752427E-7 0.08229999989271164)
      ( 2.6691269874572754 9.999999974752427E-7 0.08202700316905975)
      ( 2.670161008834839 -6.000000212225132E-6 0.08175300061702728)
      ( 2.670198917388916 -6.000000212225132E-6 0.08147899806499481)
      ( 2.6691620349884033 9.999999974752427E-7 0.08175300061702728)
      ( 2.669198989868164 9.999999974752427E-7 0.08147899806499481)
      ( 2.6702380180358887 -6.000000212225132E-6 0.08120600134134293)
      ( 2.6702799797058105 -6.000000212225132E-6 0.08093299716711044)
      ( 2.6692380905151367 9.999999974752427E-7 0.08120600134134293)
      ( 2.669279098510742 9.999999974752427E-7 0.08093299716711044)
      ( 2.6703219413757324 -6.000000212225132E-6 0.08066499978303909)
      ( 2.6703670024871826 -6.000000212225132E-6 0.08039800077676773)
      ( 2.6693220138549805 9.999999974752427E-7 0.08066499978303909)
      ( 2.6693670749664307 9.999999974752427E-7 0.08039800077676773)
      ( 2.670413017272949 -6.000000212225132E-6 0.08013100177049637)
      ( 2.670461893081665 -6.000000212225132E-6 0.079865001142025)
      ( 2.6694130897521973 1.9999999949504854E-6 0.08013100177049637)
      ( 2.669461965560913 1.9999999949504854E-6 0.079865001142025)
      ( 2.6705119609832764 -4.999999873689376E-6 0.07959999889135361)
      ( 2.670564889907837 -4.999999873689376E-6 0.07933499664068222)
      ( 2.6695120334625244 1.9999999949504854E-6 0.07959999889135361)
      ( 2.6695640087127686 1.9999999949504854E-6 0.07933499664068222)
      ( 2.670619010925293 -4.999999873689376E-6 0.07907100021839142)
      ( 2.6706759929656982 -4.999999873689376E-6 0.07880599796772003)
      ( 2.669619083404541 1.9999999949504854E-6 0.07907100021839142)
      ( 2.6696760654449463 3.000000106112566E-6 0.07880599796772003)
      ( 2.67073392868042 -4.999999873689376E-6 0.07854200154542923)
      ( 2.67079496383667 -3.999999989900971E-6 0.07827799767255783)
      ( 2.669734001159668 3.000000106112566E-6 0.07854200154542923)
      ( 2.669795036315918 3.000000106112566E-6 0.07827799767255783)
      ( 2.6708579063415527 -3.999999989900971E-6 0.07801400125026703)
      ( 2.670923948287964 -3.999999989900971E-6 0.07774999737739563)
      ( 2.669857978820801 3.000000106112566E-6 0.07801400125026703)
      ( 2.669924020767212 3.999999989900971E-6 0.07774999737739563)
      ( 2.6709909439086914 -3.000000106112566E-6 0.07748600095510483)
      ( 2.6710610389709473 -3.000000106112566E-6 0.07722300291061401)
      ( 2.6699910163879395 3.999999989900971E-6 0.07748600095510483)
      ( 2.6700611114501953 4.999999873689376E-6 0.07722300291061401)
      ( 2.671133041381836 -1.9999999949504854E-6 0.0769599974155426)
      ( 2.671205997467041 -1.9999999949504854E-6 0.07669900357723236)
      ( 2.670133113861084 4.999999873689376E-6 0.0769599974155426)
      ( 2.670206069946289 6.000000212225132E-6 0.07669900357723236)
      ( 2.6713030338287354 -9.999999974752427E-7 0.07636900246143341)
      ( 2.6714019775390625 0.0 0.07604300230741501)
      ( 2.6703031063079834 7.000000096013537E-6 0.07636900246143341)
      ( 2.6704020500183105 7.999999979801942E-6 0.07604300230741501)
      ( 2.671504020690918 9.999999974752427E-7 0.07572200149297714)
      ( 2.6716079711914062 3.000000106112566E-6 0.0754069983959198)
      ( 2.670504093170166 9.000000318337698E-6 0.07572200149297714)
      ( 2.6706080436706543 9.999999747378752E-6 0.0754069983959198)
      ( 2.671715021133423 3.999999989900971E-6 0.07509499788284302)