/*--------------------------------*- C++ -*----------------------------------*\
|       o          |                                                          |
|    o     o       | HELYX-OS                                                  |
|   o   O   o      | Version: v2.4.0                                           |
|    o     o       | Web:     http://www.engys.com                            |
|       o          |                                                          |
\*---------------------------------------------------------------------------*/
FoamFile
{
    version 2.0;
    format ascii;
    class classe;
    location parent;
    object name;
}


    387
    (
      ( -0.035944998264312744 0.0 0.0414699986577034)
      ( -0.036240000277757645 0.0 0.041634999215602875)
      ( -0.03993599861860275 3.999999989900971E-6 0.04375699907541275)
      ( -0.035739999264478683 0.0 0.041634999215602875)
      ( -0.03544500097632408 0.0 0.0414699986577034)
      ( -0.03943600133061409 3.999999989900971E-6 0.04375699907541275)
      ( -0.043588001281023026 7.000000096013537E-6 0.04598800092935562)
      ( -0.04713600128889084 7.999999979801942E-6 0.0483429990708828)
      ( -0.043088000267744064 7.000000096013537E-6 0.04598800092935562)
      ( -0.04663600027561188 7.999999979801942E-6 0.0483429990708828)
      ( -0.05057999864220619 9.000000318337698E-6 0.05087300017476082)
      ( -0.05386099964380264 7.999999979801942E-6 0.05359499901533127)
      ( -0.05008000135421753 9.000000318337698E-6 0.05087300017476082)
      ( -0.05336099863052368 7.999999979801942E-6 0.05359499901533127)
      ( -0.05694999918341637 6.000000212225132E-6 0.056547001004219055)
      ( -0.056449998170137405 6.000000212225132E-6 0.056547001004219055)
      ( -0.05978799983859062 3.999999989900971E-6 0.05972199887037277)
      ( -0.06235300004482269 1.9999999949504854E-6 0.06315500289201736)
      ( -0.05928799882531166 3.999999989900971E-6 0.05972199887037277)
      ( -0.06185299903154373 1.9999999949504854E-6 0.06315500289201736)
      ( -0.06350599974393845 1.9999999949504854E-6 0.06491799652576447)
      ( -0.06458400189876556 9.999999974752427E-7 0.06674499809741974)
      ( -0.06300599873065948 1.9999999949504854E-6 0.06491799652576447)
      ( -0.0640840008854866 9.999999974752427E-7 0.06674499809741974)
      ( -0.0655980035662651 9.999999974752427E-7 0.06866899877786636)
      ( -0.06651999801397324 9.999999974752427E-7 0.07063800096511841)
      ( -0.06509800255298615 9.999999974752427E-7 0.06866899877786636)
      ( -0.06601999700069427 9.999999974752427E-7 0.07063800096511841)
      ( -0.06800200045108795 9.999999974752427E-7 0.07450900226831436)
      ( -0.06750199943780899 9.999999974752427E-7 0.07450900226831436)
      ( -0.06903500109910965 9.999999974752427E-7 0.0782030001282692)
      ( -0.06968899816274643 0.0 0.08169399946928024)
      ( -0.06853500008583069 9.999999974752427E-7 0.0782030001282692)
      ( -0.06918899714946747 0.0 0.08169399946928024)
      ( -0.07005000114440918 0.0 0.08513399958610535)
      ( -0.07019399851560593 0.0 0.08866500109434128)
      ( -0.06955000013113022 0.0 0.08513399958610535)
      ( -0.06969399750232697 0.0 0.08866500109434128)
      ( -0.07012700289487839 -9.999999974752427E-7 0.09221100062131882)
      ( -0.06984599679708481 -9.999999974752427E-7 0.09567400068044662)
      ( -0.06962700188159943 -9.999999974752427E-7 0.09221100062131882)
      ( -0.06934600323438644 -9.999999974752427E-7 0.09567400068044662)
      ( -0.06937699764966965 -1.9999999949504854E-6 0.09909500181674957)
      ( -0.06887699663639069 -1.9999999949504854E-6 0.09909500181674957)
      ( -0.06874199956655502 -1.9999999949504854E-6 0.10251399874687195)
      ( -0.06793099641799927 -1.9999999949504854E-6 0.10587599873542786)
      ( -0.06824199855327606 -1.9999999949504854E-6 0.10251399874687195)
      ( -0.0674310028553009 -1.9999999949504854E-6 0.10587599873542786)
      ( -0.06695900112390518 -3.000000106112566E-6 0.10920900106430054)
      ( -0.06585100293159485 -3.000000106112566E-6 0.11246799677610397)
      ( -0.06645900011062622 -3.000000106112566E-6 0.10920900106430054)
      ( -0.06535100191831589 -3.000000106112566E-6 0.11246799677610397)
      ( -0.06460200250148773 -3.000000106112566E-6 0.11567600071430206)
      ( -0.0632219985127449 -1.9999999949504854E-6 0.1188260018825531)
      ( -0.06410200148820877 -3.000000106112566E-6 0.11567600071430206)
      ( -0.06272199749946594 -1.9999999949504854E-6 0.1188260018825531)
      ( -0.06172500178217888 -1.9999999949504854E-6 0.12190599739551544)
      ( -0.06122500076889992 -1.9999999949504854E-6 0.12190599739551544)
      ( -0.06010200083255768 -1.9999999949504854E-6 0.12492699921131134)
      ( -0.05834700167179108 -1.9999999949504854E-6 0.12789900600910187)
      ( -0.05960199981927872 -1.9999999949504854E-6 0.12492699921131134)
      ( -0.057847000658512115 -1.9999999949504854E-6 0.12789900600910187)
      ( -0.056474000215530396 -1.9999999949504854E-6 0.13080599904060364)
      ( -0.054492998868227005 -1.9999999949504854E-6 0.13363400101661682)
      ( -0.055973999202251434 -1.9999999949504854E-6 0.13080599904060364)
      ( -0.05399300158023834 -1.9999999949504854E-6 0.13363400101661682)
      ( -0.0523810014128685 -9.999999974752427E-7 0.1364009976387024)
      ( -0.05015699937939644 -9.999999974752427E-7 0.13908599317073822)
      ( -0.05188100039958954 -9.999999974752427E-7 0.1364009976387024)
      ( -0.04965699836611748 -9.999999974752427E-7 0.13908599317073822)
      ( -0.04787899926304817 -9.999999974752427E-7 0.14163300395011902)
      ( -0.04737899824976921 -9.999999974752427E-7 0.14163300395011902)
      ( -0.04540900141000748 -9.999999974752427E-7 0.14416800439357758)
      ( -0.04374599829316139 -9.999999974752427E-7 0.14576800167560577)
      ( -0.044909000396728516 -9.999999974752427E-7 0.14416800439357758)
      ( -0.04324600100517273 -9.999999974752427E-7 0.14576800167560577)
      ( -0.042465001344680786 0.0 0.14694200456142426)
      ( -0.04107600077986717 0.0 0.14816400408744812)
      ( -0.041965000331401825 0.0 0.14694200456142426)
      ( -0.04057599976658821 0.0 0.14816400408744812)
      ( -0.039698999375104904 0.0 0.14932499825954437)
      ( -0.03828199952840805 0.0 0.1504720002412796)
      ( -0.03919899836182594 0.0 0.14932499825954437)
      ( -0.03778199851512909 0.0 0.1504720002412796)
      ( -0.03684600070118904 0.0 0.15158799290657043)
      ( -0.03634599968791008 0.0 0.15158799290657043)
      ( -0.035395000129938126 0.0 0.1526709944009781)
      ( -0.033918000757694244 0.0 0.15373100340366364)
      ( -0.034894999116659164 0.0 0.1526709944009781)
      ( -0.03341799974441528 0.0 0.15373100340366364)
      ( -0.03242100030183792 0.0 0.15476399660110474)
      ( -0.030907999724149704 0.0 0.15576699376106262)
      ( -0.03192099928855896 0.0 0.15476399660110474)
      ( -0.030408000573515892 0.0 0.15576699376106262)
      ( -0.02937600016593933 0.0 0.15674500167369843)
      ( -0.0278290007263422 0.0 0.1576949954032898)
      ( -0.02887599915266037 0.0 0.15674500167369843)
      ( -0.02732899971306324 0.0 0.1576949954032898)
      ( -0.026264000684022903 0.0 0.1586190015077591)
      ( -0.02576499991118908 0.0 0.1586190015077591)
      ( -0.024684999138116837 0.0 0.15951700508594513)
      ( -0.0230919998139143 0.0 0.1603890061378479)
      ( -0.024184999987483025 0.0 0.15951700508594513)
      ( -0.022592000663280487 0.0 0.1603890061378479)
      ( -0.022290999069809914 0.0 0.1608159989118576)
      ( -0.0217909999191761 0.0 0.1608159989118576)
      ( -0.02148599922657013 0.0 0.16123700141906738)
      ( -0.020678000524640083 0.0 0.16165100038051605)
      ( -0.020986000075936317 0.0 0.16123700141906738)
      ( -0.020177999511361122 0.0 0.16165100038051605)
      ( -0.019866999238729477 0.0 0.1620589941740036)
      ( -0.019717000424861908 0.0 0.1620589941740036)
      ( -0.019517000764608383 0.0 0.1620589941740036)
      ( -0.019367000088095665 0.0 0.1620589941740036)
      ( -4.970000009052455E-4 0.0 1.8000000636675395E-5)
      ( -5.159999709576368E-4 0.0 0.0011470000026747584)
      ( -3.4699999378062785E-4 0.0 1.8000000636675395E-5)
      ( -1.4699999883305281E-4 0.0 1.8000000636675395E-5)
      ( -5.830000154674053E-4 0.0 0.002650999929755926)
      ( 3.000000106112566E-6 0.0 1.8000000636675395E-5)
      ( -1.5999999959603883E-5 0.0 0.0011470000026747584)
      ( -8.299999899463728E-5 0.0 0.002650999929755926)
      ( -6.559999892488122E-4 0.0 0.003664999967440963)
      ( -1.55999994603917E-4 0.0 0.003664999967440963)
      ( -6.66000007186085E-4 0.0 0.003776000114157796)
      ( -8.500000112690032E-4 0.0 0.0054870001040399075)
      ( -1.6599999798927456E-4 0.0 0.003776000114157796)
      ( -3.499999875202775E-4 0.0 0.0054870001040399075)
      ( -0.0011289999820291996 0.0 0.007298999931663275)
      ( -6.290000164881349E-4 0.0 0.007298999931663275)
      ( -0.0011660000309348106 0.0 0.007501000072807074)
      ( -0.0014990000054240227 0.0 0.009099000133574009)
      ( -6.66000007186085E-4 0.0 0.007501000072807074)
      ( -9.99000039882958E-4 0.0 0.009099000133574009)
      ( -0.001964000053703785 0.0 0.010878999717533588)
      ( -0.0014639999717473984 0.0 0.010878999717533588)
      ( -0.0021550001110881567 0.0 0.011513999663293362)
      ( -0.002524999901652336 0.0 0.012626999989151955)
      ( -0.0016550000291317701 0.0 0.011513999663293362)
      ( -0.002025000052526593 0.0 0.012626999989151955)
      ( -0.0031850000377744436 0.0 0.014330999925732613)
      ( -0.002684999955818057 0.0 0.014330999925732613)
      ( -0.0036430000327527523 0.0 0.015356999821960926)
      ( -0.003949000034481287 0.0 0.015985000878572464)
      ( -0.0031429999507963657 0.0 0.015356999821960926)
      ( -0.0034489999525249004 0.0 0.015985000878572464)
      ( -0.004486000165343285 0.0 0.017000000923871994)
      ( -0.003986000083386898 0.0 0.017000000923871994)
      ( -0.004827999975532293 0.0 0.01759600080549717)
      ( -0.005444999784231186 0.0 0.018592000007629395)
      ( -0.004327999893575907 0.0 0.01759600080549717)
      ( -0.004945000167936087 0.0 0.018592000007629395)
      ( -0.005824000108987093 0.0 0.019166000187397003)
      ( -0.005324000027030706 0.0 0.019166000187397003)
      ( -0.0064940000884234905 0.0 0.020123999565839767)
      ( -0.00688599981367588 0.0 0.02065799944102764)
      ( -0.005994000006467104 0.0 0.020123999565839767)
      ( -0.006386000197380781 0.0 0.02065799944102764)
      ( -0.007040000054985285 0.0 0.020862000063061714)
      ( -0.006539999973028898 0.0 0.020862000063061714)
      ( -0.007598999887704849 0.0 0.021581999957561493)
      ( -0.007985999807715416 0.0 0.022058000788092613)
      ( -0.007098999805748463 0.0 0.021581999957561493)
      ( -0.007486000191420317 0.0 0.022058000788092613)
      ( -0.008643999695777893 0.0 0.022828999906778336)
      ( -0.008143999613821507 0.0 0.022828999906778336)
      ( -0.009224999696016312 0.0 0.023475000634789467)
      ( -0.009790999814867973 0.0 0.02407900057733059)
      ( -0.008724999614059925 0.0 0.023475000634789467)
      ( -0.009290999732911587 0.0 0.02407900057733059)
      ( -0.010701999999582767 0.0 0.02500700019299984)
      ( -0.010201999917626381 0.0 0.02500700019299984)
      ( -0.012346000410616398 0.0 0.026561999693512917)
      ( -0.012376000173389912 0.0 0.02658900059759617)
      ( -0.011846000328660011 0.0 0.026561999693512917)
      ( -0.011876000091433525 0.0 0.02658900059759617)
      ( -0.014174999669194221 0.0 0.028131000697612762)
      ( -0.013674999587237835 0.0 0.028131000697612762)
      ( -0.014844999648630619 0.0 0.028669999912381172)
      ( -0.016047999262809753 0.0 0.02959899976849556)
      ( -0.014344999566674232 0.0 0.028669999912381172)
      ( -0.015548000112175941 0.0 0.02959899976849556)
      ( -0.016141999512910843 0.0 0.02966899983584881)
      ( -0.01564200036227703 0.0 0.02966899983584881)
      ( -0.017960000783205032 0.0 0.030981000512838364)
      ( -0.0196749996393919 0.0 0.03214100003242493)
      ( -0.01745999976992607 0.0 0.030981000512838364)
      ( -0.019175000488758087 0.0 0.03214100003242493)
      ( -0.019910000264644623 0.0 0.032294999808073044)
      ( -0.01940999925136566 0.0 0.032294999808073044)
      ( -0.021939000114798546 0.0 0.03358199819922447)
      ( -0.02392899990081787 0.0 0.03478199988603592)
      ( -0.021438999101519585 0.0 0.03358199819922447)
      ( -0.02342900075018406 0.0 0.03478199988603592)
      ( -0.024240000173449516 0.0 0.03496500104665756)
      ( -0.023739999160170555 0.0 0.03496500104665756)
      ( -0.026566000655293465 0.0 0.036302000284194946)
      ( -0.028024999424815178 9.999999974752427E-7 0.03711799904704094)
      ( -0.026065999642014503 0.0 0.036302000284194946)
      ( -0.027525000274181366 9.999999974752427E-7 0.03711799904704094)
      ( -0.0312579981982708 0.0 0.03889299929141998)
      ( -0.030758000910282135 0.0 0.03889299929141998)
      ( -0.03216300159692764 0.0 0.03938699886202812)
      ( -0.032437000423669815 0.0 0.03953700140118599)
      ( -0.03166300058364868 0.0 0.03938699886202812)
      ( -0.031936999410390854 0.0 0.03953700140118599)
      ( -0.03361399844288826 0.0 0.040181998163461685)
      ( -0.0331140011548996 0.0 0.040181998163461685)
      ( -0.034318000078201294 0.0 0.0405689999461174)
      ( -0.03525200113654137 0.0 0.04108399897813797)
      ( -0.03381799906492233 0.0 0.0405689999461174)
      ( -0.034752000123262405 0.0 0.04108399897813797)
      ( 2.723412036895752 -9.999999974752427E-7 0.04137299954891205)
      ( 2.7250959873199463 -9.999999974752427E-7 0.04086200147867203)
      ( 2.723112106323242 9.999999974752427E-7 0.04137299954891205)
      ( 2.7227120399475098 3.999999989900971E-6 0.04137299954891205)
      ( 2.7267870903015137 -9.999999974752427E-7 0.04035300016403198)
      ( 2.722412109375 6.000000212225132E-6 0.04137299954891205)
      ( 2.7240970134735107 6.000000212225132E-6 0.04086200147867203)
      ( 2.7257869243621826 6.000000212225132E-6 0.04035300016403198)
      ( 2.7284960746765137 -9.999999974752427E-7 0.03984199836850166)
      ( 2.7274959087371826 6.000000212225132E-6 0.03984199836850166)
      ( 2.7302260398864746 -9.999999974752427E-7 0.03932600095868111)
      ( 2.731966972351074 -9.999999974752427E-7 0.0388059988617897)
      ( 2.7292261123657227 6.000000212225132E-6 0.03932600095868111)
      ( 2.7309670448303223 6.000000212225132E-6 0.0388059988617897)
      ( 2.73370099067688 -9.999999974752427E-7 0.038286998867988586)
      ( 2.735414981842041 -9.999999974752427E-7 0.03777199983596802)
      ( 2.732701063156128 7.000000096013537E-6 0.038286998867988586)
      ( 2.734415054321289 7.000000096013537E-6 0.03777199983596802)
      ( 2.7371089458465576 -9.999999974752427E-7 0.037261001765728)
      ( 2.7361090183258057 7.000000096013537E-6 0.037261001765728)
      ( 2.7385849952697754 -9.999999974752427E-7 0.03681400045752525)
      ( 2.740062952041626 -9.999999974752427E-7 0.036364998668432236)
      ( 2.7375850677490234 7.000000096013537E-6 0.03681400045752525)
      ( 2.739063024520874 7.000000096013537E-6 0.036364998668432236)
      ( 2.743022918701172 -9.999999974752427E-7 0.03546199947595596)
      ( 2.7459800243377686 -9.999999974752427E-7 0.03455900028347969)
      ( 2.74202299118042 7.000000096013537E-6 0.03546199947595596)
      ( 2.7449800968170166 7.000000096013537E-6 0.03455900028347969)
      ( 2.7489259243011475 -9.999999974752427E-7 0.033661000430583954)
      ( 2.7479259967803955 7.000000096013537E-6 0.033661000430583954)
      ( 2.7518470287323 -9.999999974752427E-7 0.0327720008790493)
      ( 2.754762887954712 -9.999999974752427E-7 0.03188899904489517)
      ( 2.7508459091186523 6.000000212225132E-6 0.0327720008790493)
      ( 2.75376296043396 6.000000212225132E-6 0.03188899904489517)
      ( 2.7576749324798584 -9.999999974752427E-7 0.031011000275611877)
      ( 2.7591300010681152 -9.999999974752427E-7 0.030573999509215355)
      ( 2.7566750049591064 6.000000212225132E-6 0.031011000275611877)
      ( 2.7581300735473633 6.000000212225132E-6 0.030573999509215355)
      ( 2.760585069656372 -9.999999974752427E-7 0.030139999464154243)
      ( 2.759584903717041 6.000000212225132E-6 0.030139999464154243)
      ( 2.762037992477417 -1.9999999949504854E-6 0.029705999419093132)
      ( 2.7634921073913574 -1.9999999949504854E-6 0.02927500009536743)
      ( 2.7610390186309814 6.000000212225132E-6 0.029705999419093132)
      ( 2.7624919414520264 6.000000212225132E-6 0.02927500009536743)
      ( 2.7649450302124023 -1.9999999949504854E-6 0.028845999389886856)
      ( 2.766396999359131 -1.9999999949504854E-6 0.028418000787496567)
      ( 2.7639451026916504 4.999999873689376E-6 0.028845999389886856)
      ( 2.765397071838379 4.999999873689376E-6 0.028418000787496567)
      ( 2.7678489685058594 -1.9999999949504854E-6 0.027992000803351402)
      ( 2.7668490409851074 4.999999873689376E-6 0.027992000803351402)
      ( 2.769300937652588 -1.9999999949504854E-6 0.0275689996778965)
      ( 2.7707529067993164 -3.000000106112566E-6 0.02714800089597702)
      ( 2.768301010131836 4.999999873689376E-6 0.0275689996778965)
      ( 2.7697529792785645 4.999999873689376E-6 0.02714800089597702)
      ( 2.772205114364624 -3.000000106112566E-6 0.026729000732302666)
      ( 2.7743020057678223 -3.000000106112566E-6 0.026127999648451805)
      ( 2.771204948425293 4.999999873689376E-6 0.026729000732302666)
      ( 2.7733020782470703 3.999999989900971E-6 0.026127999648451805)
      ( 2.7764129638671875 -3.999999989900971E-6 0.025529000908136368)
      ( 2.775413990020752 3.999999989900971E-6 0.025529000908136368)
      ( 2.7785489559173584 -3.999999989900971E-6 0.024927999824285507)
      ( 2.7807130813598633 -3.999999989900971E-6 0.024325000122189522)
      ( 2.7775490283966064 3.000000106112566E-6 0.024927999824285507)
      ( 2.7797129154205322 3.000000106112566E-6 0.024325000122189522)
      ( 2.782905101776123 -4.999999873689376E-6 0.023719999939203262)
      ( 2.785120964050293 -4.999999873689376E-6 0.02311299927532673)
      ( 2.781904935836792 3.000000106112566E-6 0.023719999939203262)
      ( 2.784121036529541 1.9999999949504854E-6 0.02311299927532673)
      ( 2.7873549461364746 -6.000000212225132E-6 0.022505000233650208)
      ( 2.7863550186157227 1.9999999949504854E-6 0.022505000233650208)
      ( 2.7895989418029785 -6.000000212225132E-6 0.02189899981021881)
      ( 2.791843891143799 -7.000000096013537E-6 0.021296000108122826)
      ( 2.7885990142822266 9.999999974752427E-7 0.02189899981021881)
      ( 2.790843963623047 9.999999974752427E-7 0.021296000108122826)
      ( 2.7940800189971924 -7.000000096013537E-6 0.020697999745607376)
      ( 2.7963008880615234 -7.999999979801942E-6 0.02010600082576275)
      ( 2.793081045150757 0.0 0.020697999745607376)
      ( 2.7953009605407715 -9.999999974752427E-7 0.02010600082576275)
      ( 2.7985000610351562 -7.999999979801942E-6 0.019520999863743782)
      ( 2.797499895095825 -9.999999974752427E-7 0.019520999863743782)
      ( 2.8028171062469482 -9.999999747378752E-6 0.01837499998509884)
      ( 2.807049036026001 -1.1000000085914508E-5 0.01724899932742119)
      ( 2.806749105453491 -9.000000318337698E-6 0.01724899932742119)
      ( 2.806349039077759 -6.000000212225132E-6 0.01724899932742119)
      ( 2.801816940307617 -1.9999999949504854E-6 0.01837499998509884)
      ( 2.806049108505249 -3.999999989900971E-6 0.01724899932742119)
      ( 2.621190071105957 -3.999999989900971E-6 0.18033599853515625)
      ( 2.622982978820801 -3.999999989900971E-6 0.1803389936685562)
      ( 2.621040105819702 -3.999999989900971E-6 0.18003599345684052)
      ( 2.620840072631836 -3.999999989900971E-6 0.17963600158691406)
      ( 2.625247001647949 -3.000000106112566E-6 0.18032200634479523)
      ( 2.620690107345581 -3.999999989900971E-6 0.17933599650859833)
      ( 2.622483015060425 -3.999999989900971E-6 0.17933900654315948)
      ( 2.6247479915618896 -3.000000106112566E-6 0.1793220043182373)
      ( 2.6253740787506104 -3.000000106112566E-6 0.18032099306583405)
      ( 2.6248741149902344 -3.000000106112566E-6 0.17932100594043732)
      ( 2.627166986465454 -3.000000106112566E-6 0.1802850067615509)
      ( 2.627274990081787 -3.000000106112566E-6 0.18028299510478973)
      ( 2.626667022705078 -3.000000106112566E-6 0.17928500473499298)
      ( 2.6267759799957275 -3.000000106112566E-6 0.1792829930782318)
      ( 2.6293020248413086 -3.000000106112566E-6 0.1802159994840622)
      ( 2.6288020610809326 -3.000000106112566E-6 0.17921599745750427)
      ( 2.631326913833618 -1.9999999949504854E-6 0.18011699616909027)
      ( 2.6333489418029785 -1.9999999949504854E-6 0.1799830049276352)
      ( 2.630826950073242 -1.9999999949504854E-6 0.17911699414253235)
      ( 2.6328489780426025 -1.9999999949504854E-6 0.17898300290107727)
      ( 2.6353700160980225 -1.9999999949504854E-6 0.17980800569057465)
      ( 2.6348700523376465 -1.9999999949504854E-6 0.17880800366401672)
      ( 2.6373870372772217 -1.9999999949504854E-6 0.17959000170230865)
      ( 2.639400005340576 -9.999999974752427E-7 0.1793220043182373)
      ( 2.6368870735168457 -1.9999999949504854E-6 0.17858999967575073)
      ( 2.6389000415802 -9.999999974752427E-7 0.17832200229167938)
      ( 2.6401219367980957 -9.999999974752427E-7 0.17921200394630432)
      ( 2.641403913497925 -9.999999974752427E-7 0.1789969950914383)
      ( 2.6396219730377197 -9.999999974752427E-7 0.1782120019197464)
      ( 2.640903949737549 -9.999999974752427E-7 0.17799699306488037)
      ( 2.6433939933776855 -9.999999974752427E-7 0.17860400676727295)
      ( 2.6428940296173096 -9.999999974752427E-7 0.17760400474071503)
      ( 2.645364999771118 -9.999999974752427E-7 0.1781339943408966)
      ( 2.6473100185394287 0.0 0.17757800221443176)
      ( 2.644865036010742 -9.999999974752427E-7 0.17713400721549988)
      ( 2.6468100547790527 0.0 0.17657800018787384)
      ( 2.6492249965667725 0.0 0.17692700028419495)
      ( 2.651103973388672 0.0 0.1761700063943863)
      ( 2.6487250328063965 0.0 0.17592699825763702)
      ( 2.650604009628296 0.0 0.17517000436782837)
      ( 2.6520280838012695 0.0 0.1757490038871765)
      ( 2.6515278816223145 0.0 0.1747490018606186)
      ( 2.652587890625 0.0 0.17547699809074402)
      ( 2.6529409885406494 0.0 0.17529800534248352)
      ( 2.652087926864624 0.0 0.1744769960641861)
      ( 2.65244197845459 0.0 0.1742980033159256)
      ( 2.6538429260253906 0.0 0.17481699585914612)
      ( 2.6547319889068604 0.0 0.17430800199508667)
      ( 2.6533429622650146 0.0 0.1738169938325882)
      ( 2.6542320251464844 0.0 0.17330799996852875)
      ( 2.6564669609069824 0.0 0.17321600019931793)
      ( 2.6559669971466064 0.0 0.17221599817276)
      ( 2.6581389904022217 9.999999974752427E-7 0.1720450073480606)
      ( 2.658154010772705 9.999999974752427E-7 0.17203399538993835)
      ( 2.6576390266418457 9.999999974752427E-7 0.17104500532150269)
      ( 2.657654047012329 9.999999974752427E-7 0.17103399336338043)
      ( 2.6597390174865723 9.999999974752427E-7 0.1708180010318756)
      ( 2.6612629890441895 9.999999974752427E-7 0.16954900324344635)
      ( 2.6592390537261963 9.999999974752427E-7 0.1698179990053177)
      ( 2.6607630252838135 9.999999974752427E-7 0.16854900121688843)
      ( 2.662729024887085 9.999999974752427E-7 0.16821999847888947)
      ( 2.662229061126709 9.999999974752427E-7 0.16721999645233154)
      ( 2.6630570888519287 9.999999974752427E-7 0.16790500283241272)
      ( 2.664155960083008 9.999999974752427E-7 0.1668040007352829)
      ( 2.6625568866729736 9.999999974752427E-7 0.1669050008058548)
      ( 2.663655996322632 9.999999974752427E-7 0.16580399870872498)
      ( 2.665566921234131 9.999999974752427E-7 0.1652749925851822)
      ( 2.6669790744781494 9.999999974752427E-7 0.16361500322818756)
      ( 2.665066957473755 9.999999974752427E-7 0.16427500545978546)
      ( 2.6664791107177734 9.999999974752427E-7 0.16261500120162964)
      ( 2.6677780151367188 9.999999974752427E-7 0.16262799501419067)
      ( 2.6672780513763428 9.999999974752427E-7 0.16162799298763275)
      ( 2.668397903442383 9.999999974752427E-7 0.1618410050868988)
      ( 2.6698269844055176 9.999999974752427E-7 0.15997900068759918)
      ( 2.667897939682007 9.999999974752427E-7 0.16084100306034088)
      ( 2.6693270206451416 9.999999974752427E-7 0.15897899866104126)
      ( 2.670586109161377 9.999999974752427E-7 0.1589680016040802)
      ( 2.6712679862976074 9.999999974752427E-7 0.15805399417877197)
      ( 2.670085906982422 9.999999974752427E-7 0.15796799957752228)
      ( 2.6707680225372314 9.999999974752427E-7 0.15705400705337524)
      ( 2.674194097518921 9.999999974752427E-7 0.15411899983882904)
      ( 2.673693895339966 9.999999974752427E-7 0.15311899781227112)
      ( 2.6743199825286865 9.999999974752427E-7 0.1539520025253296)
      ( 2.6771960258483887 9.999999974752427E-7 0.15024399757385254)
      ( 2.677046060562134 9.999999974752427E-7 0.149944007396698)
      ( 2.6768460273742676 9.999999974752427E-7 0.14954400062561035)
      ( 2.6738200187683105 9.999999974752427E-7 0.15295200049877167)
      ( 2.6766960620880127 9.999999974752427E-7 0.14924399554729462)
      ( 2.676701068878174 9.999999974752427E-7 0.14925499260425568)
    )

    387
    (
      ( 0 1)
      ( 1 2)
      ( 3 4)
      ( 5 3)
      ( 2 6)
      ( 6 7)
      ( 8 5)
      ( 9 8)
      ( 7 10)
      ( 10 11)
      ( 12 9)
      ( 13 12)
      ( 11 14)
      ( 15 13)
      ( 14 16)
      ( 16 17)
      ( 18 15)
      ( 19 18)
      ( 17 20)
      ( 20 21)
      ( 22 19)
      ( 23 22)
      ( 21 24)
      ( 24 25)
      ( 26 23)
      ( 27 26)
      ( 25 28)
      ( 29 27)
      ( 28 30)
      ( 30 31)
      ( 32 29)
      ( 33 32)
      ( 31 34)
      ( 34 35)
      ( 36 33)
      ( 37 36)
      ( 35 38)
      ( 38 39)
      ( 40 37)
      ( 41 40)
      ( 39 42)
      ( 43 41)
      ( 42 44)
      ( 44 45)
      ( 46 43)
      ( 47 46)
      ( 45 48)
      ( 48 49)
      ( 50 47)
      ( 51 50)
      ( 49 52)
      ( 52 53)
      ( 54 51)
      ( 55 54)
      ( 53 56)
      ( 57 55)
      ( 56 58)
      ( 58 59)
      ( 60 57)
      ( 61 60)
      ( 59 62)
      ( 62 63)
      ( 64 61)
      ( 65 64)
      ( 63 66)
      ( 66 67)
      ( 68 65)
      ( 69 68)
      ( 67 70)
      ( 71 69)
      ( 70 72)
      ( 72 73)
      ( 74 71)
      ( 75 74)
      ( 73 76)
      ( 76 77)
      ( 78 75)
      ( 79 78)
      ( 77 80)
      ( 80 81)
      ( 82 79)
      ( 83 82)
      ( 81 84)
      ( 85 83)
      ( 84 86)
      ( 86 87)
      ( 88 85)
      ( 89 88)
      ( 87 90)
      ( 90 91)
      ( 92 89)
      ( 93 92)
      ( 91 94)
      ( 94 95)
      ( 96 93)
      ( 97 96)
      ( 95 98)
      ( 99 97)
      ( 98 100)
      ( 100 101)
      ( 102 99)
      ( 103 102)
      ( 101 104)
      ( 105 103)
      ( 104 106)
      ( 106 107)
      ( 108 105)
      ( 109 108)
      ( 110 111)
      ( 107 110)
      ( 111 112)
      ( 113 109)
      ( 112 113)
      ( 114 115)
      ( 116 114)
      ( 117 116)
      ( 115 118)
      ( 119 117)
      ( 120 119)
      ( 121 120)
      ( 118 122)
      ( 123 121)
      ( 122 124)
      ( 124 125)
      ( 126 123)
      ( 127 126)
      ( 125 128)
      ( 129 127)
      ( 128 130)
      ( 130 131)
      ( 132 129)
      ( 133 132)
      ( 131 134)
      ( 135 133)
      ( 134 136)
      ( 136 137)
      ( 138 135)
      ( 139 138)
      ( 137 140)
      ( 141 139)
      ( 140 142)
      ( 142 143)
      ( 144 141)
      ( 145 144)
      ( 143 146)
      ( 147 145)
      ( 146 148)
      ( 148 149)
      ( 150 147)
      ( 151 150)
      ( 149 152)
      ( 153 151)
      ( 152 154)
      ( 154 155)
      ( 156 153)
      ( 157 156)
      ( 155 158)
      ( 159 157)
      ( 158 160)
      ( 160 161)
      ( 162 159)
      ( 163 162)
      ( 161 164)
      ( 165 163)
      ( 164 166)
      ( 166 167)
      ( 168 165)
      ( 169 168)
      ( 167 170)
      ( 171 169)
      ( 170 172)
      ( 172 173)
      ( 174 171)
      ( 175 174)
      ( 173 176)
      ( 177 175)
      ( 176 178)
      ( 178 179)
      ( 180 177)
      ( 181 180)
      ( 179 182)
      ( 183 181)
      ( 182 184)
      ( 184 185)
      ( 186 183)
      ( 187 186)
      ( 185 188)
      ( 189 187)
      ( 188 190)
      ( 190 191)
      ( 192 189)
      ( 193 192)
      ( 191 194)
      ( 195 193)
      ( 194 196)
      ( 196 197)
      ( 198 195)
      ( 199 198)
      ( 197 200)
      ( 201 199)
      ( 200 202)
      ( 202 203)
      ( 204 201)
      ( 205 204)
      ( 203 206)
      ( 207 205)
      ( 206 208)
      ( 208 209)
      ( 210 207)
      ( 211 210)
      ( 209 0)
      ( 4 211)
      ( 212 213)
      ( 214 212)
      ( 215 214)
      ( 213 216)
      ( 217 215)
      ( 218 217)
      ( 219 218)
      ( 216 220)
      ( 221 219)
      ( 220 222)
      ( 222 223)
      ( 224 221)
      ( 225 224)
      ( 223 226)
      ( 226 227)
      ( 228 225)
      ( 229 228)
      ( 227 230)
      ( 231 229)
      ( 230 232)
      ( 232 233)
      ( 234 231)
      ( 235 234)
      ( 233 236)
      ( 236 237)
      ( 238 235)
      ( 239 238)
      ( 237 240)
      ( 241 239)
      ( 240 242)
      ( 242 243)
      ( 244 241)
      ( 245 244)
      ( 243 246)
      ( 246 247)
      ( 248 245)
      ( 249 248)
      ( 247 250)
      ( 251 249)
      ( 250 252)
      ( 252 253)
      ( 254 251)
      ( 255 254)
      ( 253 256)
      ( 256 257)
      ( 258 255)
      ( 259 258)
      ( 257 260)
      ( 261 259)
      ( 260 262)
      ( 262 263)
      ( 264 261)
      ( 265 264)
      ( 263 266)
      ( 266 267)
      ( 268 265)
      ( 269 268)
      ( 267 270)
      ( 271 269)
      ( 270 272)
      ( 272 273)
      ( 274 271)
      ( 275 274)
      ( 273 276)
      ( 276 277)
      ( 278 275)
      ( 279 278)
      ( 277 280)
      ( 281 279)
      ( 280 282)
      ( 282 283)
      ( 284 281)
      ( 285 284)
      ( 283 286)
      ( 286 287)
      ( 288 285)
      ( 289 288)
      ( 287 290)